pglib_opf_case4661_sdet/dapi/pglib_opf_case4661_sdet_14regions_dapi.m
% -------------------------------------------------------------------------
% Partitioned MATPOWER Case File
% Copyright (c) 2025 Milad Hasanzadeh
% Generated on: 2026-06-14
% This file contains partitioned data for 14 regions


% -------------------- mpc_regionR1 --------------------

mpc_regionR1.version = '2';
mpc_regionR1.baseMVA = 100.0000;
mpc_regionR1.bus = [
%	bus_i       type        Pd          Qd          Gs          Bs          area        Vm          Va          baseKV      zone        Vmax        Vmin        
	 1	 2	 0	 0	 0	 0	 5	 1	 0	 345	 5	 1.1	 0.9;
	 2	 1	 0	 0	 0	 0	 5	 1	 0	 345	 5	 1.1	 0.9;
	 3	 1	 71.9	-8.9	 0	 0	 5	 1	 0	 345	 5	 1.1	 0.9;
	 4	 1	 139.26	 24.5	 0	 0	 5	 1	 0	 345	 5	 1.1	 0.9;
	 5	 1	 11.57	-26.07	 0	 0	 5	 1	 0	 500	 5	 1.1	 0.9;
	 6	 1	 163.87	-27.94	 0	 0	 5	 1	 0	 500	 5	 1.1	 0.9;
	 7	 1	 0	 0	 0	 0	 5	 1	 0	 345	 5	 1.1	 0.9;
	 8	 1	 0	 0	 0	 0	 5	 1	 0	 345	 5	 1.1	 0.9;
	 9	 1	 0	 0	 0	 0	 5	 1	 0	 345	 5	 1.1	 0.9;
	 10	 1	 0	 0	 0	 0	 5	 1	 0	 345	 5	 1.1	 0.9;
	 11	 1	 0	 0	 0	 0	 5	 1	 0	 345	 5	 1.1	 0.9;
	 12	 1	 0	 0	 0	 0	 5	 1	 0	 345	 5	 1.1	 0.9;
	 13	 1	 40.86	 1.03	 0	 0	 5	 1	 0	 345	 5	 1.1	 0.9;
	 14	 1	 0	 0	 0	 0	 5	 1	 0	 345	 5	 1.1	 0.9;
	 15	 1	 0	 0	 0	 0	 5	 1	 0	 345	 5	 1.1	 0.9;
	 16	 2	 0	 0	 0	 0	 5	 1	 0	 345	 5	 1.1	 0.9;
	 17	 1	 4.84	 1	 0	 0	 5	 1	 0	 345	 5	 1.1	 0.9;
	 18	 1	 0	 0	 0	 0	 5	 1	 0	 345	 5	 1.1	 0.9;
	 19	 1	 0	 0	 0	 0	 5	 1	 0	 500	 5	 1.1	 0.9;
	 20	 2	 15.85	 30	 0	 0	 5	 1	 0	 345	 5	 1.1	 0.9;
	 21	 2	 47.96	 90.07	 0	 0	 5	 1	 0	 345	 5	 1.1	 0.9;
	 22	 2	 31.69	 60	 0	 0	 5	 1	 0	 345	 5	 1.1	 0.9;
	 23	 2	 31.69	 50	 0	 0	 5	 1	 0	 500	 5	 1.1	 0.9;
	 24	 2	 31.69	 50	 0	 0	 5	 1	 0	 500	 5	 1.1	 0.9;
	 25	 1	 0	 0	 0	 0	 5	 1	 0	 345	 5	 1.1	 0.9;
	 26	 1	 0	 0	 0	 0	 5	 1	 0	 500	 5	 1.1	 0.9;
	 27	 1	 0	 0	 0	 0	 5	 1	 0	 500	 5	 1.1	 0.9;
	 28	 2	 0	 0	 0	 0	 5	 1	 0	 500	 5	 1.1	 0.9;
	 29	 2	 0	 2.25	 0	 44.01	 5	 1	 0	 500	 5	 1.1	 0.9;
	 30	 1	 0	 0	 0	 0	 5	 1	 0	 345	 5	 1.1	 0.9;
	 31	 1	 0	 0	 0	 0	 5	 1	 0	 345	 5	 1.1	 0.9;
	 32	 1	 30.42	 41.61	 0	 0	 5	 1	 0	 345	 5	 1.1	 0.9;
	 33	 1	 0	 0	 0	 0	 5	 1	 0	 345	 5	 1.1	 0.9;
	 34	 1	 0	 0	 0	 0	 5	 1	 0	 345	 5	 1.1	 0.9;
	 35	 1	 0	 0	 0	 16.06	 5	 1	 0	 345	 5	 1.1	 0.9;
	 36	 1	 0	 0	 0	 0	 5	 1	 0	 345	 5	 1.1	 0.9;
	 37	 1	 0	 0	 0	 29.99	 5	 1	 0	 345	 5	 1.1	 0.9;
	 38	 2	 0	 0	 0	-0.22	 5	 1	 0	 345	 5	 1.1	 0.9;
	 39	 2	 0	 0	 0	 0	 5	 1	 0	 345	 5	 1.1	 0.9;
	 40	 2	 0	 0	 0	 76	 5	 1	 0	 500	 5	 1.1	 0.9;
	 41	 2	 0	 0	 0	 0	 5	 1	 0	 345	 5	 1.1	 0.9;
	 42	 2	 72.4	 11.61	 0	-17.46	 5	 1	 0	 345	 5	 1.1	 0.9;
	 43	 2	 0	 0	 0	-34.38	 5	 1	 0	 345	 5	 1.1	 0.9;
	 44	 1	 12.18	 5.11	 0	 0	 5	 1	 0	 138	 5	 1.1	 0.9;
	 45	 1	 9.36	 4.5	 0	 0	 5	 1	 0	 138	 5	 1.1	 0.9;
	 46	 1	 6.08	 1.2	 0	 0	 5	 1	 0	 138	 5	 1.1	 0.9;
	 47	 1	 8.28	 2.5	 0	 0	 5	 1	 0	 138	 5	 1.1	 0.9;
	 48	 1	 9.99	 1.8	 0	 0	 5	 1	 0	 138	 5	 1.1	 0.9;
	 49	 1	 0	 0	 0	 45	 5	 1	 0	 16	 5	 1.1	 0.9;
	 50	 1	 115.55	 46.31	 0	 0	 5	 1	 0	 138	 5	 1.1	 0.9;
	 51	 1	 138.1	 42.19	 0	 0	 5	 1	 0	 138	 5	 1.1	 0.9;
	 52	 1	 0	 0	 0	 0	 5	 1	 0	 138	 5	 1.1	 0.9;
	 53	 1	 0	 0	 0	 40.02	 5	 1	 0	 16	 5	 1.1	 0.9;
	 54	 1	 15.03	 4	 0	 0	 5	 1	 0	 138	 5	 1.1	 0.9;
	 55	 1	 26.82	 6.01	 0	 0	 5	 1	 0	 138	 5	 1.1	 0.9;
	 56	 1	 7.8	 1	 0	 0	 5	 1	 0	 138	 5	 1.1	 0.9;
	 57	 1	 11.75	 4	 0	 0	 5	 1	 0	 138	 5	 1.1	 0.9;
	 58	 1	 39.04	 8.01	 0	 0	 5	 1	 0	 138	 5	 1.1	 0.9;
	 59	 1	 13.75	 6.51	 0	 0	 5	 1	 0	 138	 5	 1.1	 0.9;
	 60	 1	 0	 0	 0	 0	 5	 1	 0	 138	 5	 1.1	 0.9;
	 61	 1	 5.96	 1.5	 0	 0	 5	 1	 0	 138	 5	 1.1	 0.9;
	 62	 1	 19.99	 7.51	 0	 0	 5	 1	 0	 138	 5	 1.1	 0.9;
	 63	 2	 0.99	-14.55	 0	 0	 5	 1	 0	 138	 5	 1.1	 0.9;
	 64	 1	 1.21	 0.3	 0	 0	 5	 1	 0	 138	 5	 1.1	 0.9;
	 65	 1	 4.21	 1.05	 0	 0	 5	 1	 0	 138	 5	 1.1	 0.9;
	 66	 1	 4.21	 1.05	 0	 0	 5	 1	 0	 138	 5	 1.1	 0.9;
	 67	 1	 7.81	 1.69	 0	 0	 5	 1	 0	 138	 5	 1.1	 0.9;
	 68	 1	 10.82	 2.34	 0	 0	 5	 1	 0	 138	 5	 1.1	 0.9;
	 69	 1	 46.62	 27.41	 0	 0	 5	 1	 0	 138	 5	 1.1	 0.9;
	 70	 1	 118.23	 33.61	 0	 0	 5	 1	 0	 138	 5	 1.1	 0.9;
	 71	 1	 25.26	 10.72	 0	 0	 5	 1	 0	 138	 5	 1.1	 0.9;
	 72	 1	 15.03	 3.38	 0	 0	 5	 1	 0	 138	 5	 1.1	 0.9;
	 73	 1	 15.03	 3.38	 0	 0	 5	 1	 0	 138	 5	 1.1	 0.9;
	 74	 1	 35.23	 9.61	 0	 0	 5	 1	 0	 138	 5	 1.1	 0.9;
	 75	 1	 8.12	 0.3	 0	 0	 5	 1	 0	 138	 5	 1.1	 0.9;
	 76	 1	 29.7	 0.45	 0	 0	 5	 1	 0	 138	 5	 1.1	 0.9;
	 77	 1	 4.12	 0.4	 0	 0	 5	 1	 0	 138	 5	 1.1	 0.9;
	 78	 1	 7.26	 1	 0	 0	 5	 1	 0	 138	 5	 1.1	 0.9;
	 79	 1	 9.57	 0.6	 0	 0	 5	 1	 0	 138	 5	 1.1	 0.9;
	 80	 1	 4.24	 0.3	 0	 0	 5	 1	 0	 138	 5	 1.1	 0.9;
	 81	 1	 3.63	 0.5	 0	 0	 5	 1	 0	 138	 5	 1.1	 0.9;
	 82	 1	 30.26	 9.51	 0	 0	 5	 1	 0	 138	 5	 1.1	 0.9;
	 83	 1	 6.78	 2.6	 0	 0	 5	 1	 0	 138	 5	 1.1	 0.9;
	 84	 1	 6.06	 1	 0	 0	 5	 1	 0	 138	 5	 1.1	 0.9;
	 85	 1	 7.26	 1.5	 0	 0	 5	 1	 0	 138	 5	 1.1	 0.9;
	 86	 1	 3.79	 1	 0	 0	 5	 1	 0	 138	 5	 1.1	 0.9;
	 87	 1	 0	 0	 0	 0	 5	 1	 0	 138	 5	 1.1	 0.9;
	 88	 1	 0.87	 0	 0	 0	 5	 1	 0	 138	 5	 1.1	 0.9;
	 89	 1	 12.71	 1	 0	 4.28	 5	 1	 0	 138	 5	 1.1	 0.9;
	 90	 1	 0.87	 0	 0	 0	 5	 1	 0	 138	 5	 1.1	 0.9;
	 91	 1	 4.84	 1	 0	 0	 5	 1	 0	 138	 5	 1.1	 0.9;
	 92	 2	 15.85	 30	 0	 0	 5	 1	 0	 138	 5	 1.1	 0.9;
	 93	 2	 0	-0.46	 0	 0	 5	 1	 0	 138	 5	 1.1	 0.9;
	 94	 1	 27.84	 5.51	 0	 0	 5	 1	 0	 138	 5	 1.1	 0.9;
	 95	 1	 15.13	 3.5	 0	 0	 5	 1	 0	 138	 5	 1.1	 0.9;
	 96	 2	 0.6	-6.17	 0	 0	 5	 1	 0	 138	 5	 1.1	 0.9;
	 97	 1	 12.32	 2.78	 0	 0	 5	 1	 0	 138	 5	 1.1	 0.9;
	 98	 2	 0	-0.12	 0	 0	 5	 1	 0	 138	 5	 1.1	 0.9;
	 99	 1	 5.79	 0.8	 0	 0	 5	 1	 0	 138	 5	 1.1	 0.9;
	 100	 1	 12.9	 1.39	 0	 5.15	 5	 1	 0	 138	 5	 1.1	 0.9;
	 101	 1	 8.47	 1.5	 0	 0	 5	 1	 0	 138	 5	 1.1	 0.9;
	 102	 1	 0	 0	 0	 0	 5	 1	 0	 138	 5	 1.1	 0.9;
	 103	 1	 53.86	 19.07	 0	 0	 5	 1	 0	 138	 5	 1.1	 0.9;
	 104	 1	 23.77	 1.69	 0	 0	 5	 1	 0	 138	 5	 1.1	 0.9;
	 105	 1	 2.63	 0.12	 0	 0	 5	 1	 0	 138	 5	 1.1	 0.9;
	 106	 1	 0.79	 0.06	 0	 0	 5	 1	 0	 138	 5	 1.1	 0.9;
	 107	 1	 5.2	 0.6	 0	 0	 5	 1	 0	 138	 5	 1.1	 0.9;
	 108	 1	 13.41	 1.63	 0	 0	 5	 1	 0	 138	 5	 1.1	 0.9;
	 109	 1	 0.99	 0	 0	 0	 5	 1	 0	 138	 5	 1.1	 0.9;
	 110	 1	 9.71	 5.78	 0	 0	 5	 1	 0	 138	 5	 1.1	 0.9;
	 111	 1	 4.84	 1	 0	 0	 5	 1	 0	 138	 5	 1.1	 0.9;
	 112	 2	 48.41	 9.51	 0	 0	 5	 1	 0	 138	 5	 1.1	 0.9;
	 113	 1	 0	 0	 0	-1.16	 5	 1	 0	 138	 5	 1.1	 0.9;
	 114	 1	 84.74	 30.03	 0	-28.38	 5	 1	 0	 138	 5	 1.1	 0.9;
	 115	 1	 8.72	 0.4	 0	 0	 5	 1	 0	 138	 5	 1.1	 0.9;
	 116	 2	 0	-0.57	 0	 0	 5	 1	 0	 138	 5	 1.1	 0.9;
	 117	 1	 6.06	 1	 0	 0	 5	 1	 0	 138	 5	 1.1	 0.9;
	 118	 2	 0.99	-0.12	 0	 0	 5	 1	 0	 138	 5	 1.1	 0.9;
	 119	 1	 7.75	 0.3	 0	 0	 5	 1	 0	 138	 5	 1.1	 0.9;
	 120	 1	 11.51	 0.2	 0	 0	 5	 1	 0	 138	 5	 1.1	 0.9;
	 121	 1	 8.47	 0.5	 0	 0	 5	 1	 0	 138	 5	 1.1	 0.9;
	 122	 1	 20.57	 5.01	 0	 0	 5	 1	 0	 138	 5	 1.1	 0.9;
	 123	 1	 10.9	 0.5	 0	 0	 5	 1	 0	 138	 5	 1.1	 0.9;
	 124	 2	 1.82	 0.5	 0	-7.95	 5	 1	 0	 138	 5	 1.1	 0.9;
	 125	 1	 17.55	 2.5	 0	 0	 5	 1	 0	 138	 5	 1.1	 0.9;
	 126	 1	 6.06	 1	 0	 0	 5	 1	 0	 138	 5	 1.1	 0.9;
	 127	 1	 0	 0	 0	 0	 5	 1	 0	 138	 5	 1.1	 0.9;
	 128	 1	 12.1	 2	 0	 0	 5	 1	 0	 138	 5	 1.1	 0.9;
	 129	 1	 18.16	 3	 0	 0	 5	 1	 0	 138	 5	 1.1	 0.9;
	 130	 1	 14.53	 2	 0	 0	 5	 1	 0	 138	 5	 1.1	 0.9;
	 131	 1	 13.43	 2.2	 0	 0	 5	 1	 0	 138	 5	 1.1	 0.9;
	 132	 1	 0.99	 0	 0	 0	 5	 1	 0	 138	 5	 1.1	 0.9;
	 133	 2	 8.4	 9.42	 0	 0	 5	 1	 0	 138	 5	 1.1	 0.9;
	 134	 1	 7.26	 1	 0	 0	 5	 1	 0	 138	 5	 1.1	 0.9;
	 135	 1	 4.84	 0.5	 0	 0	 5	 1	 0	 138	 5	 1.1	 0.9;
	 136	 1	 24.21	 6.01	 0	 0	 5	 1	 0	 138	 5	 1.1	 0.9;
	 137	 1	 0	 0	 0	 0	 5	 1	 0	 138	 5	 1.1	 0.9;
	 138	 1	 0	 0	 0	 0	 5	 1	 0	 138	 5	 1.1	 0.9;
	 139	 1	 0	 0	 0	 0	 5	 1	 0	 138	 5	 1.1	 0.9;
	 140	 1	 14.53	 2	 0	 0	 5	 1	 0	 138	 5	 1.1	 0.9;
	 141	 1	 0.99	 0	 0	 0	 5	 1	 0	 138	 5	 1.1	 0.9;
	 142	 1	 13.31	 4	 0	 0	 5	 1	 0	 138	 5	 1.1	 0.9;
	 143	 1	 0	 0	 0	 0	 5	 1	 0	 138	 5	 1.1	 0.9;
	 144	 1	 9.61	-1.6	 0	 0	 5	 1	 0	 138	 5	 1.1	 0.9;
	 145	 1	 6.06	 2	 0	 0	 5	 1	 0	 138	 5	 1.1	 0.9;
	 146	 1	 0	 0	 0	 0	 5	 1	 0	 138	 5	 1.1	 0.9;
	 147	 1	 0	 0	 0	 0	 5	 1	 0	 138	 5	 1.1	 0.9;
	 148	 1	 8.47	 1.5	 0	 0	 5	 1	 0	 138	 5	 1.1	 0.9;
	 149	 2	 210.2	 65.03	 0	 34.35	 5	 1	 0	 32	 5	 1.1	 0.9;
	 150	 1	 0	 0	 0	 36.81	 11	 1	 0	 345	 11	 1.1	 0.9;
	 151	 1	 0	 0	 0	 15.69	 11	 1	 0	 345	 11	 1.1	 0.9;
	 152	 1	 99.11	-12.01	 0	 0	 11	 1	 0	 345	 11	 1.1	 0.9;
	 153	 1	 0	 0	 0	 0	 11	 1	 0	 345	 11	 1.1	 0.9;
	 154	 1	 0	 0	 0	 0	 11	 1	 0	 500	 11	 1.1	 0.9;
	 155	 1	 0	 0	 0	 0	 11	 1	 0	 500	 11	 1.1	 0.9;
	 156	 1	 279.75	 62.3	 0	 0	 11	 1	 0	 500	 11	 1.1	 0.9;
	 157	 2	 256.97	 61.83	 0	 0	 11	 1	 0	 345	 11	 1.1	 0.9;
	 158	 1	 131.08	 66.18	 0	 0	 11	 1	 0	 345	 11	 1.1	 0.9;
	 159	 1	 317.85	-35.97	 0	 0	 11	 1	 0	 345	 11	 1.1	 0.9;
	 160	 1	 0	 0	 0	 0	 11	 1	 0	 500	 11	 1.1	 0.9;
	 161	 1	 0	 0	 0	 0	 11	 1	 0	 500	 11	 1.1	 0.9;
	 162	 1	 201.2	 42.64	 0	 0	 11	 1	 0	 500	 11	 1.1	 0.9;
	 163	 2	 73.13	 120	 0	 0	 11	 1	 0	 500	 11	 1.1	 0.9;
	 164	 2	 73.13	 120	 0	 0	 11	 1	 0	 500	 11	 1.1	 0.9;
	 165	 1	 125.31	 48.45	 0	 0	 11	 1	 0	 500	 11	 1.1	 0.9;
	 166	 1	 0	 0	 0	 0	 11	 1	 0	 500	 11	 1.1	 0.9;
	 167	 2	 0	 0	 0	 0	 11	 1	 0	 500	 11	 1.1	 0.9;
	 168	 1	 0	 0	 0	 0	 11	 1	 0	 500	 11	 1.1	 0.9;
	 169	 2	 12.19	 44	 0	-1.5	 11	 1	 0	 345	 11	 1.1	 0.9;
	 170	 1	 1427.85	 194.45	 0	 0	 11	 1	 0	 500	 11	 1.1	 0.9;
	 171	 1	 378.52	-23.06	 0	 0	 11	 1	 0	 500	 11	 1.1	 0.9;
	 172	 1	 0	 0	 0	 0	 11	 1	 0	 500	 11	 1.1	 0.9;
	 173	 2	 247.08	 85.13	 0	 0	 11	 1	 0	 24	 11	 1.1	 0.9;
	 174	 1	 0	 0	 0	 37.29	 11	 1	 0	 32	 11	 1.1	 0.9;
	 175	 1	 1.3	 0.19	 0	 0	 11	 1	 0	 138	 11	 1.1	 0.9;
	 176	 2	 0.26	 0.28	 0	-5.71	 11	 1	 0	 138	 11	 1.1	 0.9;
	 177	 1	 2.27	 12.74	 0	 0	 11	 1	 0	 138	 11	 1.1	 0.9;
	 178	 1	 0.24	 0.49	 0	 0	 11	 1	 0	 138	 11	 1.1	 0.9;
	 179	 2	 0	 0.38	 0	 0	 11	 1	 0	 138	 11	 1.1	 0.9;
	 180	 2	 19.1	 2.61	 0	 0	 12	 1	 0	 138	 12	 1.1	 0.9;
	 181	 1	 99.34	 85.9	 0	-10	 14	 1	 0	 345	 14	 1.1	 0.9;
	 182	 1	 0	 0	 0	 0	 14	 1	 0	 500	 14	 1.1	 0.9;
	 183	 2	 0	 0	 0	 0	 14	 1	 0	 500	 14	 1.1	 0.9;
	 184	 1	 0	 0	 0	 0	 14	 1	 0	 500	 14	 1.1	 0.9;
	 185	 1	 0	 0	 0	 0	 14	 1	 0	 500	 14	 1.1	 0.9;
	 186	 1	 188.44	 71.72	 0	 0	 14	 1	 0	 500	 14	 1.1	 0.9;
	 187	 2	 0	 0	 0	-2.24	 14	 1	 0	 345	 14	 1.1	 0.9;
	 188	 2	 0	 0	 0	-290.32	 14	 1	 0	 500	 14	 1.1	 0.9;
	 189	 1	 0	 0	 0	 0	 14	 1	 0	 500	 14	 1.1	 0.9;
	 190	 1	 0	 0	 0	 0	 14	 1	 0	 500	 14	 1.1	 0.9;
	 191	 2	 0	 0	 0	-100.52	 14	 1	 0	 500	 14	 1.1	 0.9;
	 192	 1	 105.91	 60.16	 0	 0	 14	 1	 0	 500	 14	 1.1	 0.9;
	 193	 1	 0	 0	 0	 70	 14	 1	 0	 500	 14	 1.1	 0.9;
	 194	 1	 0	 0	 0	 0	 14	 1	 0	 500	 14	 1.1	 0.9;
	 195	 2	 13.41	 40	 0	 0	 14	 1	 0	 500	 14	 1.1	 0.9;
	 196	 2	 6.09	 10	 0	 0	 14	 1	 0	 500	 14	 1.1	 0.9;
	 197	 1	 8.45	 3.11	 0	 0	 14	 1	 0	 138	 14	 1.1	 0.9;
	 198	 2	 17.86	 1	 0	 0	 14	 1	 0	 138	 14	 1.1	 0.9;
	 199	 2	 9.92	 1.32	 0	 0	 14	 1	 0	 138	 14	 1.1	 0.9;
	 200	 1	 17.27	 4.22	 0	 0	 14	 1	 0	 138	 14	 1.1	 0.9;
...
];

mpc_regionR1.gen = [
%	bus         Pg          Qg          Qmax        Qmin        Vg          mBase       status      Pmax        Pmin        Pc1         Pc2         Qc1min      Qc1max      Qc2min      Qc2max      ramp_agc    ramp_10     ramp_30     ramp_q      apf         
	 1	 93.6675	 53.5	 179	-72	 1	 100	 1	 143	 44.335	 0	 0	 0	 0	 0	 0	 0	 0	 0	 0	 187.961;
	 16	 98.1575	 0	 88	-88	 1	 100	 1	 175	 21.315	 0	 0	 0	 0	 0	 0	 0	 0	 0	 0	 113.922;
	 20	 165	 7	 152	-138	 1	 306.24	 1	 275	 55	 0	 0	 0	 0	 0	 0	 0	 0	 0	 0	 256.25;
	 20	 0	 0	 73.33	-73.33	 1	 220	 0	 125	 46	 0	 0	 0	 0	 0	 0	 0	 0	 0	 0	 220;
	 21	 0	 0	 224	-224	 1	 225	 0	 448	 62.5	 0	 0	 0	 0	 0	 0	 0	 0	 0	 0	 225;
	 21	 223	 0	 196	-196	 1	 304.12	 1	 391	 55	 0	 0	 0	 0	 0	 0	 0	 0	 0	 0	 256.25;
	 22	 145.5	 15.5	 149	-118	 1	 274.96	 1	 236	 55	 0	 0	 0	 0	 0	 0	 0	 0	 0	 0	 281.25;
	 22	 177	 1	 149	-147	 1	 228.01	 1	 294	 60	 0	 0	 0	 0	 0	 0	 0	 0	 0	 0	 225;
	 23	 272.75	 77	 363	-209	 1	 535	 1	 418	 127.5	 0	 0	 0	 0	 0	 0	 0	 0	 0	 0	 535;
	 24	 308.5	 51	 348	-246	 1	 560	 1	 492	 125	 0	 0	 0	 0	 0	 0	 0	 0	 0	 0	 560;
	 28	 145.485	 0	 127	-127	 1	 100	 1	 253	 37.97	 0	 0	 0	 0	 0	 0	 0	 0	 0	 0	 233.656;
	 29	 0	 0	 75	-75	 1	 225	 0	 74	 64.5	 0	 0	 0	 0	 0	 0	 0	 0	 0	 0	 225;
	 29	 0	 0	 75	-75	 1	 225	 0	 129	 39	 0	 0	 0	 0	 0	 0	 0	 0	 0	 0	 225;
	 29	 0	 0	 50	-50	 1	 100	 0	 99	 37.825	 0	 0	 0	 0	 0	 0	 0	 0	 0	 0	 90.647;
	 38	 0	 0	 33.33	-33.33	 1	 100	 0	 15.22	 6	 0	 0	 0	 0	 0	 0	 0	 0	 0	 0	 30.222;
	 39	 48.05	 32.5	 191	-126	 1	 100	 1	 92	 4.1	 0	 0	 0	 0	 0	 0	 0	 0	 0	 0	 74.821;
	 40	 0	 0	 55	-55	 1	 100	 0	 109	 37.545	 0	 0	 0	 0	 0	 0	 0	 0	 0	 0	 90.088;
	 41	 84.1525	 0	 82	-82	 1	 100	 1	 163	 5.305	 0	 0	 0	 0	 0	 0	 0	 0	 0	 0	 88.022;
	 42	 0	 0	 33.33	-33.33	 1	 100	 0	 42.35	 20	 0	 0	 0	 0	 0	 0	 0	 0	 0	 0	 57.353;
	 43	 0	 0	 33.33	-33.33	 1	 100	 0	 46	 0.58	 0	 0	 0	 0	 0	 0	 0	 0	 0	 0	 284;
	 63	 0	 0	 81	-81	 1	 4	 0	 161	 1.5	 0	 0	 0	 0	 0	 0	 0	 0	 0	 0	 297;
	 92	 209.25	 0	 176	-176	 1	 249.58	 1	 351	 67.5	 0	 0	 0	 0	 0	 0	 0	 0	 0	 0	 256.25;
	 93	 0	 0	 111	-111	 1	 225	 0	 222	 55	 0	 0	 0	 0	 0	 0	 0	 0	 0	 0	 225;
	 96	 0	 0	 56.67	-56.67	 1	 170	 0	 37	 33	 0	 0	 0	 0	 0	 0	 0	 0	 0	 0	 170;
	 96	 0	 0	 20.33	-20.33	 1	 61	 0	 34	 8	 0	 0	 0	 0	 0	 0	 0	 0	 0	 0	 61;
	 98	 0	 0	 32	-32	 1	 21	 0	 64	 0	 0	 0	 0	 0	 0	 0	 0	 0	 0	 0	 21;
	 112	 118.785	 36.5	 185	-112	 1	 100	 1	 223	 14.57	 0	 0	 0	 0	 0	 0	 0	 0	 0	 0	 96.995;
	 116	 0	 0	 86	-86	 1	 36	 0	 172	 0	 0	 0	 0	 0	 0	 0	 0	 0	 0	 0	 36;
	 118	 0	 0	 121	-121	 1	 3	 0	 241	 1	 0	 0	 0	 0	 0	 0	 0	 0	 0	 0	 295;
	 124	 0	 0	 33.33	-33.33	 1	 100	 0	 58	 1.82	 0	 0	 0	 0	 0	 0	 0	 0	 0	 0	 295;
	 133	 0	 0	 13	-13	 1	 6	 0	 26	 0.5	 0	 0	 0	 0	 0	 0	 0	 0	 0	 0	 283;
	 149	 211.5	 0	 212	-212	 1	 112	 1	 423	 0	 0	 0	 0	 0	 0	 0	 0	 0	 0	 0	 112;
	 157	 222.5	 0	 195	-195	 1	 221	 1	 390	 55	 0	 0	 0	 0	 0	 0	 0	 0	 0	 0	 221;
	 163	 649.375	 0	 545	-545	 1	 616.84	 1	 1089	 209.75	 0	 0	 0	 0	 0	 0	 0	 0	 0	 0	 1091.147;
	 163	 377.375	 0	 273	-273	 1	 616.84	 1	 545	 209.75	 0	 0	 0	 0	 0	 0	 0	 0	 0	 0	 1091.147;
	 163	 978.375	 0	 874	-874	 1	 616.84	 1	 1747	 209.75	 0	 0	 0	 0	 0	 0	 0	 0	 0	 0	 1091.147;
	 164	 502	 0	 442	-442	 1	 451.84	 1	 884	 120	 0	 0	 0	 0	 0	 0	 0	 0	 0	 0	 462.5;
	 164	 228.5	 10.5	 190	-169	 1	 416.51	 1	 337	 120	 0	 0	 0	 0	 0	 0	 0	 0	 0	 0	 425;
	 164	 435.5	 0	 376	-376	 1	 416.51	 1	 751	 120	 0	 0	 0	 0	 0	 0	 0	 0	 0	 0	 425;
	 167	 126.6075	-14.26	 114.1	-142.62	 1	 100	 1	 198	 55.215	 0	 0	 0	 0	 0	 0	 0	 0	 0	 0	 214.279;
	 169	 135	 7.5	 120	-105	 1	 281.34	 1	 210	 60	 0	 0	 0	 0	 0	 0	 0	 0	 0	 0	 268.75;
	 169	 0	 0	 33.33	-33.33	 1	 100	 0	 70	 3	 0	 0	 0	 0	 0	 0	 0	 0	 0	 0	 84.998;
	 173	 216.5	-7.85	 237.5	-253.2	 1	 477.9	 1	 313	 120	 0	 0	 0	 0	 0	 0	 0	 0	 0	 0	 437.5;
	 176	 0	 0	 33.33	-33.33	 1	 100	 0	 16	 10.45	 0	 0	 0	 0	 0	 0	 0	 0	 0	 0	 35.9;
	 179	 77.175	 0	 74	-74	 1	 100	 1	 147	 7.35	 0	 0	 0	 0	 0	 0	 0	 0	 0	 0	 54.752;
	 180	 69.1625	 0	 69	-69	 1	 100	 1	 137	 1.325	 0	 0	 0	 0	 0	 0	 0	 0	 0	 0	 287;
	 183	 171.8625	 0	 162	-162	 1	 100	 1	 324	 19.725	 0	 0	 0	 0	 0	 0	 0	 0	 0	 0	 137.965;
	 187	 0	 0	 121	-121	 1	 100	 0	 242	 19.27	 0	 0	 0	 0	 0	 0	 0	 0	 0	 0	 53.537;
	 188	 0	 0	 82	-82	 1	 100	 0	 164	 134.54	 0	 0	 0	 0	 0	 0	 0	 0	 0	 0	 284.075;
	 191	 0	 0	 139	-139	 1	 100	 0	 277	 13.51	 0	 0	 0	 0	 0	 0	 0	 0	 0	 0	 42.024;
	 195	 26	 0	 126	-126	 1	 216.55	 1	 252	-200	 0	 0	 0	 0	 0	 0	 0	 0	 0	 0	 179;
	 195	 54	 0	 154	-154	 1	 179	 1	 308	-200	 0	 0	 0	 0	 0	 0	 0	 0	 0	 0	 179;
	 195	 23	 3.5	 130	-123	 1	 179	 1	 246	-200	 0	 0	 0	 0	 0	 0	 0	 0	 0	 0	 179;
	 196	 159	 0	 259	-259	 1	 179	 1	 518	-200	 0	 0	 0	 0	 0	 0	 0	 0	 0	 0	 179;
	 198	 91	-42.5	 85	-170	 1	 58.99	 1	 169	 13	 0	 0	 0	 0	 0	 0	 0	 0	 0	 0	 55;
	 199	 0	 0	 44	-44	 1	 55	 0	 88	 13	 0	 0	 0	 0	 0	 0	 0	 0	 0	 0	 55;
	 201	 51	 16.5	 199	-166	 1	 0.36	 1	 102	 0	 0	 0	 0	 0	 0	 0	 0	 0	 0	 0	 274;
	 207	 20.5	 0.5	 179	-178	 1	 18	 1	 41	 0	 0	 0	 0	 0	 0	 0	 0	 0	 0	 0	 18;
	 208	 53	 7.5	 184	-169	 1	 22	 1	 106	 0	 0	 0	 0	 0	 0	 0	 0	 0	 0	 0	 22;
	 213	 31.5	 6	 192	-180	 1	 0.24	 1	 63	 0	 0	 0	 0	 0	 0	 0	 0	 0	 0	 0	 270;
	 215	 0	 0	 33.33	-33.33	 1	 100	 0	 29	 3.83	 0	 0	 0	 0	 0	 0	 0	 0	 0	 0	 294;
	 218	 28.75	 10.5	 195	-174	 1	 2	 1	 57	 0.5	 0	 0	 0	 0	 0	 0	 0	 0	 0	 0	 290;
	 224	 36.5	 7	 192	-178	 1	 1	 1	 73	 0	 0	 0	 0	 0	 0	 0	 0	 0	 0	 0	 292;
	 225	 76.5	 4	 187	-179	 1	 1.08	 1	 153	 0	 0	 0	 0	 0	 0	 0	 0	 0	 0	 0	 282;
	 231	 29.5	 4.5	 176	-167	 1	 0.12	 1	 59	 0	 0	 0	 0	 0	 0	 0	 0	 0	 0	 0	 289;
	 237	 29.5	 3.5	 189	-182	 1	 9	 1	 59	 0	 0	 0	 0	 0	 0	 0	 0	 0	 0	 0	 260;
	 239	 52.5	 5	 183	-173	 1	 0.24	 1	 105	 0	 0	 0	 0	 0	 0	 0	 0	 0	 0	 0	 251;
	 252	 306.25	 0	 274	-274	 1	 252.56	 1	 548	 64.5	 0	 0	 0	 0	 0	 0	 0	 0	 0	 0	 262.5;
	 253	 279.25	 0	 247	-247	 1	 270.01	 1	 494	 64.5	 0	 0	 0	 0	 0	 0	 0	 0	 0	 0	 262.632;
	 253	 130.25	 0.5	 99	-98	 1	 234.01	 1	 196	 64.5	 0	 0	 0	 0	 0	 0	 0	 0	 0	 0	 262.632;
	 254	 0	 0	 151	-151	 1	 225	 0	 301	 64.5	 0	 0	 0	 0	 0	 0	 0	 0	 0	 0	 225;
	 254	 0	 0	 228	-228	 1	 225	 0	 455	 64.5	 0	 0	 0	 0	 0	 0	 0	 0	 0	 0	 225;
	 255	 171.25	 0	 139	-139	 1	 270.05	 1	 278	 64.5	 0	 0	 0	 0	 0	 0	 0	 0	 0	 0	 281.25;
	 255	 183.25	 0	 151	-151	 1	 258.06	 1	 302	 64.5	 0	 0	 0	 0	 0	 0	 0	 0	 0	 0	 268.75;
	 256	 0	 0	 76	-76	 1	 100	 0	 152	 34.485	 0	 0	 0	 0	 0	 0	 0	 0	 0	 0	 83.972;
	 260	 119.8475	 0	 118	-118	 1	 100	 1	 236	 3.695	 0	 0	 0	 0	 0	 0	 0	 0	 0	 0	 27.308;
	 261	 0	 0	 33.33	-33.33	 1	 100	 0	 25	 20.175	 0	 0	 0	 0	 0	 0	 0	 0	 0	 0	 55.348;
	 264	 0	 0	 33.33	-33.33	 1	 100	 0	 98.07	 25	 0	 0	 0	 0	 0	 0	 0	 0	 0	 0	 113.068;
	 273	 0	 0	 36	-36	 1	 3	 0	 71	 0	 0	 0	 0	 0	 0	 0	 0	 0	 0	 0	 260;
	 286	 0	 0	 434	-434	 1	 3	 0	 867	 0	 0	 0	 0	 0	 0	 0	 0	 0	 0	 0	 255;
	 291	 0	 0	 33.33	-33.33	 1	 100	 0	 16	 10.185	 0	 0	 0	 0	 0	 0	 0	 0	 0	 0	 35.372;
	 295	 0	 0	 34	-34	 1	 10	 0	 68	 0	 0	 0	 0	 0	 0	 0	 0	 0	 0	 0	 10;
	 299	 54	 2	 176	-172	 1	 30	 1	 108	 0	 0	 0	 0	 0	 0	 0	 0	 0	 0	 0	 30;
	 301	 58.5	-2	 180	-184	 1	 2	 1	 117	 0	 0	 0	 0	 0	 0	 0	 0	 0	 0	 0	 286;
	 302	 0	 0	 62	-62	 1	 100	 0	 123	 0.075	 0	 0	 0	 0	 0	 0	 0	 0	 0	 0	 274;
	 304	 128.25	 12	 120	-96	 1	 228.26	 1	 192	 64.5	 0	 0	 0	 0	 0	 0	 0	 0	 0	 0	 225;
	 307	 0	 0	 198	-198	 1	 101	 0	 395	 24.5	 0	 0	 0	 0	 0	 0	 0	 0	 0	 0	 101;
	 310	 0	 0	 27	-27	 1	 12	 0	 53	 0	 0	 0	 0	 0	 0	 0	 0	 0	 0	 0	 12;
	 317	 168.5	 0	 169	-169	 1	 12	 1	 337	 0	 0	 0	 0	 0	 0	 0	 0	 0	 0	 0	 12;
	 320	 21	 5	 192	-182	 1	 8	 1	 42	 0	 0	 0	 0	 0	 0	 0	 0	 0	 0	 0	 278;
	 323	 0	 0	 22.67	-22.67	 1	 68	 0	 35	 2.5	 0	 0	 0	 0	 0	 0	 0	 0	 0	 0	 68;
	 323	 119.25	-27	 118	-172	 1	 73.22	 1	 236	 2.5	 0	 0	 0	 0	 0	 0	 0	 0	 0	 0	 68;
	 323	 0	 0	 12	-12	 1	 31	 0	 23	-32	 0	 0	 0	 0	 0	 0	 0	 0	 0	 0	 31;
	 323	 0	 0	 54	-54	 1	 31	 0	 107	-32	 0	 0	 0	 0	 0	 0	 0	 0	 0	 0	 31;
	 334	 76.5	 5.5	 189	-178	 1	 37.2	 1	 153	 0	 0	 0	 0	 0	 0	 0	 0	 0	 0	 0	 38.75;
	 334	 37.5	 10.5	 190	-169	 1	 31	 1	 75	 0	 0	 0	 0	 0	 0	 0	 0	 0	 0	 0	 31;
	 335	 0	 0	 8.33	-8.33	 1	 25	 0	 3	 0	 0	 0	 0	 0	 0	 0	 0	 0	 0	 0	 25;
	 335	 0	 0	 32	-32	 1	 25	 0	 63	 0	 0	 0	 0	 0	 0	 0	 0	 0	 0	 0	 25;
	 349	 0	 0	 107	-107	 1	 100	 0	 214	 1.19	 0	 0	 0	 0	 0	 0	 0	 0	 0	 0	 257;
	 392	 23.5	 13	 198	-172	 1	 17.9	 1	 46	 1	 0	 0	 0	 0	 0	 0	 0	 0	 0	 0	 17.5;
	 392	 15.5	 7.5	 192	-177	 1	 17.35	 1	 30	 1	 0	 0	 0	 0	 0	 0	 0	 0	 0	 0	 16.875;
	 392	 9.5	 9	 185	-167	 1	 17.35	 1	 18	 1	 0	 0	 0	 0	 0	 0	 0	 0	 0	 0	 16.875;
	 392	 17	 11.5	 197	-174	 1	 4.56	 1	 34	 0	 0	 0	 0	 0	 0	 0	 0	 0	 0	 0	 274;
	 392	 21	 2	 177	-173	 1	 5.04	 1	 42	 0	 0	 0	 0	 0	 0	 0	 0	 0	 0	 0	 260;
	 392	 0	 0	 43	-43	 1	 14	 0	 85	 1	 0	 0	 0	 0	 0	 0	 0	 0	 0	 0	 14;
	 413	 171.5	 0	 327.6	-327.6	 1	 136.57	 1	 343	 0	 0	 0	 0	 0	 0	 0	 0	 0	 0	 0	 124;
];

mpc_regionR1.branch = [
%	fbus        tbus        r           x           b           rateA       rateB       rateC       ratio       angle       status      angmin      angmax      
	 1	 8	 0.013	 0.09781	 0.14013	 375	 375	 375	 0	 0	 1	-30	 30;
	 2	 3	 2e-05	 0.00021	 0	 876	 876	 876	 0	 0	 1	-30	 30;
	 4	 2	 0.00079	 0.07524	 0	 160	 160	 160	 0.9999	 0	 1	-30	 30;
	 2	 7	 0.00558	 0.04147	 0.0629	 231	 231	 231	 0	 0	 1	-30	 30;
	 3	 5	 0.00064	 0.0305	 0	 400	 400	 400	 1.09271	 0	 1	-30	 30;
	 49	 4	-0.00024	 0.15701	 0	 83.84	 108.99	 108.99	 0.94157	 0	 1	-30	 30;
	 5	 6	 1e-05	 6e-05	 0	 1593	 1593	 1593	 0	 0	 1	-30	 30;
	 5	 191	 0.0001	 0.01	 0	 395.28	 474.34	 592.92	 0	 0	 1	-30	 30;
	 6	 23	 0.0015	 0.01506	 0.4032	 1154	 1154	 1154	 0	 0	 1	-30	 30;
	 7	 8	 2e-05	 0.00021	 0	 876	 876	 876	 0	 0	 1	-30	 30;
	 9	 7	 0.00059	 0.07897	 0	 160	 160	 160	 0.9999	 0	 1	-30	 30;
	 7	 22	 0.01457	 0.07362	 0.13344	 515.45	 670.08	 670.08	 0	 0	 1	-30	 30;
	 52	 7	 0.00165	 0.06775	 0	 160	 160	 160	 1.08569	 0	 1	-30	 30;
	 10	 8	 0.00062	 0.08296	 0	 160	 160	 160	 0.9999	 0	 1	-30	 30;
	 8	 12	 0.00442	 0.02374	 0.04477	 339	 339	 339	 0	 0	 1	-30	 30;
	 8	 13	 0.00525	 0.03847	 0.06053	 231	 231	 231	 0	 0	 1	-30	 30;
	 8	 14	 0.00089	 0.0063	 0.0108	 231	 231	 231	 0	 0	 1	-30	 30;
	 50	 9	 0.0006	-0.01352	 0	 160	 160	 160	 1.07516	 0	 1	-30	 30;
	 53	 9	-0.00467	 0.16067	 0	 260	 312	 390	 0.94157	 0	 1	-30	 30;
	 51	 10	 0.00062	 0.01547	 0	 160	 160	 160	 1.07516	 0	 1	-30	 30;
	 11	 12	 2e-05	 0.00021	 0	 876	 876	 876	 0	 0	 1	-30	 30;
	 11	 21	 0.01174	 0.07014	 0.12689	 419.34	 545.14	 545.14	 0	 0	 1	-30	 30;
	 54	 11	 0.00165	 0.06901	 0	 198.23	 257.7	 257.7	 1.05853	 0	 1	-30	 30;
	 55	 12	 0.00165	 0.06901	 0	 160	 160	 160	 1.06912	 0	 1	-30	 30;
	 13	 187	 0.0001	 0.01	 0	 83.7	 98.6	 125.55	 0	 0	 1	-30	 30;
	 70	 14	 0.00165	 0.06901	 0	 160	 160	 160	 1.09281	 0	 1	-30	 30;
	 15	 31	 0.00657	 0.0481	 0.0727	 319	 319	 319	 0	 0	 1	-30	 30;
	 15	 36	 0.0114	 0.06587	 0.09975	 274	 274	 274	 0	 0	 1	-30	 30;
	 75	 15	 0.0014	 0.0668	 0	 160	 160	 160	 1.01196	 0	 1	-30	 30;
	 16	 36	 0.00452	 0.03366	 0.05156	 341	 341	 341	 0	 0	 1	-30	 30;
	 16	 151	 0.0001	 0.01	 0	 116.36	 139.63	 174.53	 0	 0	 1	-30	 30;
	 17	 18	 2e-05	 0.00021	 0	 876	 876	 876	 0	 0	 1	-30	 30;
	 17	 25	 0.00242	 0.01531	 0.02249	 287	 287	 287	 0	 0	 1	-30	 30;
	 17	 33	 0.01219	 0.0637	 0.09333	 266	 266	 266	 0	 0	 1	-30	 30;
	 17	 39	 0.01116	 0.07171	 0.10367	 267	 267	 267	 0	 0	 1	-30	 30;
	 18	 19	 0.00034	 0.02097	 0	 500	 500	 500	 1.0755	 0	 1	-30	 30;
	 18	 32	 0.00246	 0.01826	 0.02798	 231	 231	 231	 0	 0	 1	-30	 30;
	 18	 42	 0.01488	 0.08161	 0.1148	 266	 266	 266	 0	 0	 1	-30	 30;
	 19	 29	 0.00218	 0.02536	 0.68579	 838	 838	 838	 0	 0	 1	-30	 30;
	 20	 21	 2e-05	 0.00021	 0	 876	 876	 876	 0	 0	 1	-30	 30;
	 20	 22	 2e-05	 0.00021	 0	 876	 876	 876	 0	 0	 1	-30	 30;
	 20	 30	 0.00543	 0.03733	 0.06668	 341	 341	 341	 0	 0	 1	-30	 30;
	 20	 33	 0.00618	 0.04353	 0.07649	 341	 341	 341	 0	 0	 1	-30	 30;
	 92	 20	 0.00157	 0.06775	 0	 160	 160	 160	 1.01196	 0	 1	-30	 30;
	 21	 34	 0.00618	 0.04353	 0.07649	 266	 266	 266	 0	 0	 1	-30	 30;
	 93	 21	 0.00157	 0.06775	 0	 160	 160	 160	 1.01196	 0	 1	-30	 30;
	 22	 24	 0.00034	 0.02097	 0	 500	 500	 500	 1.07313	 0	 1	-30	 30;
	 22	 31	 0.00543	 0.03733	 0.06668	 341	 341	 341	 0	 0	 1	-30	 30;
	 23	 24	 1e-05	 6e-05	 0	 1593	 1593	 1593	 0	 0	 1	-30	 30;
	 23	 27	 0.00184	 0.02139	 0.5777	 838	 838	 838	 0	 0	 1	-30	 30;
	 24	 26	 0.0017	 0.01977	 0.53386	 838	 838	 838	 0	 0	 1	-30	 30;
	 94	 25	 0.00163	 0.06946	 0	 160	 160	 160	 1.01196	 0	 1	-30	 30;
	 102	 26	 0.00135	 0.06052	 0	 250	 250	 250	 1.07213	 0	 1	-30	 30;
	 27	 28	 1e-05	 6e-05	 0	 1593	 1593	 1593	 0	 0	 1	-30	 30;
	 114	 27	 0.00139	 0.05984	 0	 250	 250	 250	 1.06772	 0	 1	-30	 30;
	 30	 31	 2e-05	 0.00021	 0	 876	 876	 876	 0	 0	 1	-30	 30;
	 30	 34	 0.01054	 0.06151	 0.09306	 197	 197	 197	 0	 0	 1	-30	 30;
	 149	 30	 0.00502	 0.22855	 0	 80	 80	 80	 0.96759	 0	 1	-30	 30;
	 149	 30	 0.00478	 0.23168	 0	 80	 80	 80	 0.96759	 0	 1	-30	 30;
	 149	 31	 0.00477	 0.23469	 0	 80	 80	 80	 0.96759	 0	 1	-30	 30;
	 33	 34	 2e-05	 0.00021	 0	 876	 876	 876	 0	 0	 1	-30	 30;
	 127	 33	 0.00163	 0.06783	 0	 160	 160	 160	 1.00562	 0	 1	-30	 30;
	 126	 34	 0.00143	 0.06831	 0	 160	 160	 160	 1.00143	 0	 1	-30	 30;
	 35	 36	 0.00134	 0.00996	 0.01337	 287	 287	 287	 0	 0	 1	-30	 30;
	 35	 260	 0.0001	 0.01	 0	 121.19	 145.43	 181.78	 0	 0	 1	-30	 30;
	 37	 39	 0.00207	 0.01279	 0.02055	 480.61	 576.73	 720.91	 0	 0	 1	-30	 30;
	 38	 39	 2e-05	 0.00021	 0	 876	 876	 876	 0	 0	 1	-30	 30;
	 38	 152	 0.0001	 0.01	 0	 148.23	 177.88	 222.35	 0	 0	 1	-30	 30;
	 39	 40	 0.0004	 0.0253	 0	 500	 500	 500	 1.0457	 0	 1	-30	 30;
	 39	 43	 0.00083	 0.00525	 0.00868	 250	 250	 250	 0	 0	 1	-30	 30;
	 39	 150	 0.0001	 0.01	 0	 285.72	 342.86	 428.58	 0	 0	 1	-30	 30;
	 40	 255	 0.0001	 0.01	 0	 83.7	 98.6	 125.55	 0	 0	 1	-30	 30;
	 41	 42	 0.00316	 0.02378	 0.03527	 231	 231	 231	 0	 0	 1	-30	 30;
	 42	 248	 0.0001	 0.01	 0	 83.7	 98.6	 125.55	 0	 0	 1	-30	 30;
	 44	 45	 8e-05	 0.00083	 0	 438	 438	 438	 0	 0	 1	-30	 30;
	 44	 93	 0.05661	 0.1305	 0.013	 55	 55	 55	 0	 0	 1	-30	 30;
	 45	 56	 0.01777	 0.03124	 0.00297	 55	 55	 55	 0	 0	 1	-30	 30;
	 46	 54	 0.03182	 0.05851	 0.00559	 55	 55	 55	 0	 0	 1	-30	 30;
	 47	 55	 0.03256	 0.06124	 0.00549	 55	 55	 55	 0	 0	 1	-30	 30;
	 48	 54	 0.00607	 0.01757	 0.00407	 76	 76	 76	 0	 0	 1	-30	 30;
	 50	 63	 0.00161	 0.00521	 0.00055	 126.61	 151.93	 189.91	 0	 0	 1	-30	 30;
	 51	 52	 8e-05	 0.00083	 0	 438	 438	 438	 0	 0	 1	-30	 30;
	 51	 67	 0.00401	 0.01293	 0.00137	 70	 70	 70	 0	 0	 1	-30	 30;
	 52	 57	 0.01223	 0.02868	 0.00295	 129	 129	 129	 0	 0	 1	-30	 30;
	 52	 66	 0.00212	 0.00684	 0.00073	 93	 93	 93	 0	 0	 1	-30	 30;
	 52	 71	 0.00382	 0.02652	 0.00281	 137	 137	 137	 0	 0	 1	-30	 30;
	 54	 58	 0.01061	 0.03423	 0.00363	 166.11	 199.33	 249.17	 0	 0	 1	-30	 30;
	 54	 62	 0.04058	 0.07612	 0.00678	 98.84	 128.49	 128.49	 0	 0	 1	-30	 30;
	 55	 68	 0.01202	 0.03521	 0.00986	 76	 76	 76	 0	 0	 1	-30	 30;
	 55	 73	 0.01963	 0.06331	 0.00672	 93	 93	 93	 0	 0	 1	-30	 30;
	 55	 82	 0.07463	 0.13025	 0.01244	 87.68	 113.99	 113.99	 0	 0	 1	-30	 30;
	 58	 64	 0.01381	 0.04492	 0.00795	 122.87	 147.44	 184.3	 0	 0	 1	-30	 30;
	 59	 92	 0.01636	 0.05314	 0.00619	 71	 71	 71	 0	 0	 1	-30	 30;
	 59	 131	 0.05223	 0.09008	 0.00866	 55	 55	 55	 0	 0	 1	-30	 30;
	 60	 61	 8e-05	 0.00083	 0	 438	 438	 438	 0	 0	 1	-30	 30;
	 60	 93	 0.05653	 0.18587	 0.01908	 71	 71	 71	 0	 0	 1	-30	 30;
	 63	 64	 8e-05	 0.00083	 0	 438	 438	 438	 0	 0	 1	-30	 30;
	 65	 66	 8e-05	 0.00083	 0	 438	 438	 438	 0	 0	 1	-30	 30;
	 65	 72	 0.00316	 0.01018	 0.00108	 93	 93	 93	 0	 0	 1	-30	 30;
	 69	 71	 0.00064	 0.0041	 0.02001	 105	 105	 105	 0	 0	 1	-30	 30;
	 72	 73	 8e-05	 0.00083	 0	 438	 438	 438	 0	 0	 1	-30	 30;
	 74	 75	 8e-05	 0.00083	 0	 438	 438	 438	 0	 0	 1	-30	 30;
	 74	 96	 0.00397	 0.01298	 0.00133	 120	 120	 120	 0	 0	 1	-30	 30;
	 75	 96	 0.00397	 0.01281	 0.00131	 120	 120	 120	 0	 0	 1	-30	 30;
	 75	 106	 0.00413	 0.03066	 0.00293	 137	 137	 137	 0	 0	 1	-30	 30;
	 75	 107	 0.00562	 0.00992	 0.00092	 58	 58	 58	 0	 0	 1	-30	 30;
	 75	 108	 0.01372	 0.04438	 0.00454	 90	 90	 90	 0	 0	 1	-30	 30;
	 76	 137	 0.04	 0.06182	 0.00676	 79	 79	 79	 0	 0	 1	-30	 30;
	 76	 141	 0.01025	 0.0181	 0.0017	 79	 79	 79	 0	 0	 1	-30	 30;
	 76	 349	 0.0001	 0.01	 0	 83.7	 98.6	 125.55	 0	 0	 1	-30	 30;
	 77	 119	 0.00496	 0.01339	 0.00138	 77	 77	 77	 0	 0	 1	-30	 30;
	 77	 148	 0.03628	 0.09421	 0.00974	 77	 77	 77	 0	 0	 1	-30	 30;
	 78	 121	 0.02397	 0.08322	 0.00799	 120	 120	 120	 0	 0	 1	-30	 30;
	 78	 126	 0.00901	 0.03107	 0.00298	 120	 120	 120	 0	 0	 1	-30	 30;
	 79	 120	 0.04843	 0.08438	 0.00809	 58	 58	 58	 0	 0	 1	-30	 30;
	 79	 131	 0.0376	 0.06554	 0.00624	 58	 58	 58	 0	 0	 1	-30	 30;
	 80	 85	 0.01777	 0.05736	 0.00587	 120	 120	 120	 0	 0	 1	-30	 30;
	 80	 93	 0.02058	 0.06612	 0.00686	 120	 120	 120	 0	 0	 1	-30	 30;
	 81	 124	 0.00355	 0.01157	 0.00119	 120	 120	 120	 0	 0	 1	-30	 30;
	 82	 109	 0.0295	 0.05182	 0.00488	 120	 120	 120	 0	 0	 1	-30	 30;
	 83	 102	 0.02033	 0.06562	 0.00671	 90	 90	 90	 0	 0	 1	-30	 30;
	 84	 127	 0.04066	 0.11116	 0.01147	 103	 103	 103	 0	 0	 1	-30	 30;
	 84	 140	 0.02777	 0.07769	 0.00801	 103	 103	 103	 0	 0	 1	-30	 30;
	 85	 125	 0.02099	 0.06785	 0.00694	 120	 120	 120	 0	 0	 1	-30	 30;
	 86	 120	 0.01917	 0.06198	 0.00634	 90	 90	 90	 0	 0	 1	-30	 30;
	 87	 92	 0.00025	 0.00066	 0	 137	 137	 137	 0	 0	 1	-30	 30;
	 88	 90	 0.00144	 0.00464	 0.00047	 120	 120	 120	 0	 0	 1	-30	 30;
	 88	 94	 0.00184	 0.00597	 0.00061	 120	 120	 120	 0	 0	 1	-30	 30;
	 89	 94	 0.0076	 0.02455	 0.00252	 120	 120	 120	 0	 0	 1	-30	 30;
	 89	 180	 0.0001	 0.01	 0	 83.7	 98.6	 125.55	 0	 0	 1	-30	 30;
	 90	 94	 0.0023	 0.00744	 0.00076	 120	 120	 120	 0	 0	 1	-30	 30;
	 91	 136	 0.03992	 0.06793	 0.00543	 79	 79	 79	 0	 0	 1	-30	 30;
	 92	 93	 8e-05	 0.00083	 0	 438	 438	 438	 0	 0	 1	-30	 30;
	 92	 142	 0.03471	 0.11256	 0.01158	 120	 120	 120	 0	 0	 1	-30	 30;
	 93	 95	 0.01372	 0.04446	 0.00454	 120	 120	 120	 0	 0	 1	-30	 30;
	 94	 110	 0.05736	 0.10083	 0.00949	 79	 79	 79	 0	 0	 1	-30	 30;
	 94	 145	 0.02446	 0.04322	 0.00405	 79	 79	 79	 0	 0	 1	-30	 30;
	 95	 117	 0.01851	 0.06	 0.00614	 120	 120	 120	 0	 0	 1	-30	 30;
	 96	 176	 0.0001	 0.01	 0	 83.7	 98.6	 125.55	 0	 0	 1	-30	 30;
	 97	 98	 0.00124	 0.00397	 0.00044	 90	 90	 90	 0	 0	 1	-30	 30;
	 97	 105	 0.00314	 0.01025	 0.00105	 90	 90	 90	 0	 0	 1	-30	 30;
	 98	 108	 0.00107	 0.00802	 0.00018	 90	 90	 90	 0	 0	 1	-30	 30;
	 99	 102	 0.01083	 0.01917	 0.0018	 90	 90	 90	 0	 0	 1	-30	 30;
	 99	 108	 0.00455	 0.00802	 0.00075	 90	 90	 90	 0	 0	 1	-30	 30;
	 100	 102	 0.01339	 0.02686	 0.00257	 58	 58	 58	 0	 0	 1	-30	 30;
	 100	 103	 0.00959	 0.03116	 0.00318	 131	 131	 131	 0	 0	 1	-30	 30;
	 100	 179	 0.0001	 0.01	 0	 83.7	 98.6	 125.55	 0	 0	 1	-30	 30;
	 101	 112	 0.03132	 0.1014	 0.01038	 120	 120	 120	 0	 0	 1	-30	 30;
	 101	 148	 0.04719	 0.08521	 0.00803	 79	 79	 79	 0	 0	 1	-30	 30;
	 102	 103	 8e-05	 0.00083	 0	 438	 438	 438	 0	 0	 1	-30	 30;
	 102	 106	 0.0038	 0.0286	 0.00273	 183	 183	 183	 0	 0	 1	-30	 30;
	 102	 115	 0.06372	 0.20612	 0.02108	 90	 90	 90	 0	 0	 1	-30	 30;
	 102	 133	 0.01372	 0.05686	 0.00567	 90	 90	 90	 0	 0	 1	-30	 30;
	 103	 105	 0.00231	 0.02413	 0.00373	 148	 148	 148	 0	 0	 1	-30	 30;
	 104	 107	 0.00446	 0.00793	 0.00075	 58	 58	 58	 0	 0	 1	-30	 30;
	 105	 106	 8e-05	 0.00083	 0	 438	 438	 438	 0	 0	 1	-30	 30;
	 109	 142	 0.01512	 0.05132	 0.00251	 120	 120	 120	 0	 0	 1	-30	 30;
	 111	 136	 0.02488	 0.07223	 0.00824	 120	 120	 120	 0	 0	 1	-30	 30;
	 112	 137	 0.06909	 0.1238	 0.01008	 79	 79	 79	 0	 0	 1	-30	 30;
	 112	 303	 0.0001	 0.01	 0	 83.7	 98.6	 125.55	 0	 0	 1	-30	 30;
	 113	 114	 0.00033	 0.00058	 0.0242	 274	 274	 274	 0	 0	 1	-30	 30;
	 115	 144	 0.03793	 0.12298	 0.01258	 90	 90	 90	 0	 0	 1	-30	 30;
	 116	 140	 0.004	 0.01038	 0.00107	 103	 103	 103	 0	 0	 1	-30	 30;
	 117	 118	 0.01934	 0.06264	 0.00641	 120	 120	 120	 0	 0	 1	-30	 30;
	 118	 128	 0.02702	 0.0876	 0.009	 120	 120	 120	 0	 0	 1	-30	 30;
	 119	 120	 0.00372	 0.00884	 0.00067	 77	 77	 77	 0	 0	 1	-30	 30;
	 121	 124	 0.02322	 0.07521	 0.0077	 120	 120	 120	 0	 0	 1	-30	 30;
	 122	 123	 0.00777	 0.01686	 0.00165	 79	 79	 79	 0	 0	 1	-30	 30;
	 122	 132	 0.00355	 0.00628	 0.00542	 79	 79	 79	 0	 0	 1	-30	 30;
	 123	 126	 0.02289	 0.0519	 0.00506	 79	 79	 79	 0	 0	 1	-30	 30;
	 123	 130	 0.02521	 0.05744	 0.00561	 79	 79	 79	 0	 0	 1	-30	 30;
	 125	 130	 0.00579	 0.00992	 0.00105	 120	 120	 120	 0	 0	 1	-30	 30;
	 126	 127	 8e-05	 0.00083	 0	 438	 438	 438	 0	 0	 1	-30	 30;
	 126	 136	 0.05331	 0.13339	 0.01064	 103	 103	 103	 0	 0	 1	-30	 30;
	 126	 143	 0.0124	 0.03603	 0	 137	 137	 137	 0	 0	 1	-30	 30;
	 126	 148	 0.0519	 0.1314	 0.01312	 103	 103	 103	 0	 0	 1	-30	 30;
	 127	 129	 0.01521	 0.02562	 0.00245	 79	 79	 79	 0	 0	 1	-30	 30;
	 127	 132	 0.01686	 0.02983	 0.00281	 79	 79	 79	 0	 0	 1	-30	 30;
	 127	 134	 0.03826	 0.06752	 0.00633	 79	 79	 79	 0	 0	 1	-30	 30;
	 128	 129	 0.00851	 0.01438	 0.00155	 79	 79	 79	 0	 0	 1	-30	 30;
	 134	 146	 0.00884	 0.01488	 0.0015	 79	 79	 79	 0	 0	 1	-30	 30;
	 135	 146	 0.00041	 0.0119	 0.00122	 120	 120	 120	 0	 0	 1	-30	 30;
	 136	 137	 8e-05	 0.00083	 0	 438	 438	 438	 0	 0	 1	-30	 30;
	 136	 138	 0.00058	 0.00165	 0	 137	 137	 137	 0	 0	 1	-30	 30;
	 136	 139	 0.00331	 0.00992	 0	 137	 137	 137	 0	 0	 1	-30	 30;
	 136	 147	 0.01818	 0.05463	 0	 137	 137	 137	 0	 0	 1	-30	 30;
	 137	 140	 0.00289	 0.00777	 0.0008	 103	 103	 103	 0	 0	 1	-30	 30;
	 141	 145	 0.03124	 0.05512	 0.00516	 79	 79	 79	 0	 0	 1	-30	 30;
	 152	 153	 2e-05	 0.00021	 0	 876	 876	 876	 0	 0	 1	-30	 30;
	 153	 154	 0.00064	 0.0305	 0	 400	 400	 400	 1.09271	 0	 1	-30	 30;
	 153	 157	 0.01469	 0.10915	 0.16676	 317	 317	 317	 0	 0	 1	-30	 30;
	 154	 155	 0.0011	 0.01271	 0.35206	 838	 838	 838	 0	 0	 1	-30	 30;
	 154	 156	 0.00286	 0.03355	 0.90157	 838	 838	 838	 0	 0	 1	-30	 30;
	 155	 164	 0.00342	 0.03928	 1.0829	 1154	 1154	 1154	 0	 0	 1	-30	 30;
	 156	 166	 0.00023	 0.00264	 0.07296	 838	 838	 838	 0	 0	 1	-30	 30;
	 157	 261	 0.0001	 0.01	 0	 222.3	 266.76	 333.45	 0	 0	 1	-30	 30;
	 158	 159	 2e-05	 0.00021	 0	 876	 876	 876	 0	 0	 1	-30	 30;
	 160	 161	 1e-05	 6e-05	 0	 1593	 1593	 1593	 0	 0	 1	-30	 30;
	 160	 163	 0.00358	 0.04122	 1.1338	 1154	 1154	 1154	 0	 0	 1	-30	 30;
	 160	 171	 0.00217	 0.02513	 0.67098	 1154	 1154	 1154	 0	 0	 1	-30	 30;
...
];

mpc_regionR1.gencost = [
%	2           startup     shutdown    n           c(n-1)...c0 
	 2	 0	 0	 3	 0	 29.643795	 0;
	 2	 0	 0	 3	 0	 15.778189	 0;
	 2	 0	 0	 3	 0	 29.934834	 0;
	 2	 0	 0	 3	 0	 42.955993	 0;
	 2	 0	 0	 3	 0	 28.429944	 0;
	 2	 0	 0	 3	 0	 24.541088	 0;
	 2	 0	 0	 3	 0	 31.151164	 0;
	 2	 0	 0	 3	 0	 32.533861	 0;
	 2	 0	 0	 3	 0	 20.9929	 0;
	 2	 0	 0	 3	 0	 34.019176	 0;
	 2	 0	 0	 3	 0	 21.595456	 0;
	 2	 0	 0	 3	 0	 30.53651	 0;
	 2	 0	 0	 3	 0	 30.978552	 0;
	 2	 0	 0	 3	 0	 60.309374	 0;
	 2	 0	 0	 3	 0	 50.127172	 0;
	 2	 0	 0	 3	 0	 23.804996	 0;
	 2	 0	 0	 3	 0	 103.888135	 0;
	 2	 0	 0	 3	 0	 16.414005	 0;
	 2	 0	 0	 3	 0	 44.338124	 0;
	 2	 0	 0	 3	 0	 38.483821	 0;
	 2	 0	 0	 3	 0	 10.697315	 0;
	 2	 0	 0	 3	 0	 32.053849	 0;
	 2	 0	 0	 3	 0	 29.25283	 0;
	 2	 0	 0	 3	 0	 11.180959	 0;
	 2	 0	 0	 3	 0	 41.375782	 0;
	 2	 0	 0	 3	 0	 114.778673	 0;
	 2	 0	 0	 3	 0	 29.540266	 0;
	 2	 0	 0	 3	 0	 118.968338	 0;
	 2	 0	 0	 3	 0	 28.786295	 0;
	 2	 0	 0	 3	 0	 27.229507	 0;
	 2	 0	 0	 3	 0	 32.93079	 0;
	 2	 0	 0	 3	 0	 35.076258	 0;
	 2	 0	 0	 3	 0	 33.293265	 0;
	 2	 0	 0	 3	 0	 29.624401	 0;
	 2	 0	 0	 3	 0	 7.130874	 0;
	 2	 0	 0	 3	 0	 20.708952	 0;
	 2	 0	 0	 3	 0	 21.372045	 0;
	 2	 0	 0	 3	 0	 29.118341	 0;
	 2	 0	 0	 3	 0	 45.032544	 0;
	 2	 0	 0	 3	 0	 39.901683	 0;
	 2	 0	 0	 3	 0	 41.104554	 0;
	 2	 0	 0	 3	 0	 42.953925	 0;
	 2	 0	 0	 3	 0	 26.620211	 0;
	 2	 0	 0	 3	 0	 30.831933	 0;
	 2	 0	 0	 3	 0	 49.487156	 0;
	 2	 0	 0	 3	 0	 15.292639	 0;
	 2	 0	 0	 3	 0	 17.912322	 0;
	 2	 0	 0	 3	 0	 53.719557	 0;
	 2	 0	 0	 3	 0	 28.575508	 0;
	 2	 0	 0	 3	 0	 43.592096	 0;
	 2	 0	 0	 3	 0	 38.031712	 0;
	 2	 0	 0	 3	 0	 39.270854	 0;
	 2	 0	 0	 3	 0	 29.088015	 0;
	 2	 0	 0	 3	 0	 23.307005	 0;
	 2	 0	 0	 3	 0	 48.869305	 0;
	 2	 0	 0	 3	 0	 27.657778	 0;
	 2	 0	 0	 3	 0	 42.259779	 0;
	 2	 0	 0	 3	 0	 19.11298	 0;
	 2	 0	 0	 3	 0	 28.472143	 0;
	 2	 0	 0	 3	 0	 15.640641	 0;
	 2	 0	 0	 3	 0	 27.732268	 0;
	 2	 0	 0	 3	 0	 45.136693	 0;
	 2	 0	 0	 3	 0	 22.722548	 0;
	 2	 0	 0	 3	 0	 22.449619	 0;
	 2	 0	 0	 3	 0	 32.1865	 0;
	 2	 0	 0	 3	 0	 22.666507	 0;
	 2	 0	 0	 3	 0	 12.045064	 0;
	 2	 0	 0	 3	 0	 34.58724	 0;
	 2	 0	 0	 3	 0	 25.502863	 0;
	 2	 0	 0	 3	 0	 9.00107	 0;
	 2	 0	 0	 3	 0	 19.141267	 0;
	 2	 0	 0	 3	 0	 31.044097	 0;
	 2	 0	 0	 3	 0	 32.901453	 0;
	 2	 0	 0	 3	 0	 27.991061	 0;
	 2	 0	 0	 3	 0	 33.825097	 0;
	 2	 0	 0	 3	 0	 35.894023	 0;
	 2	 0	 0	 3	 0	 0.114686	 0;
	 2	 0	 0	 3	 0	 46.973101	 0;
	 2	 0	 0	 3	 0	 17.065789	 0;
	 2	 0	 0	 3	 0	 28.228838	 0;
	 2	 0	 0	 3	 0	 33.620603	 0;
	 2	 0	 0	 3	 0	 31.461986	 0;
	 2	 0	 0	 3	 0	 120.790588	 0;
	 2	 0	 0	 3	 0	 19.384802	 0;
	 2	 0	 0	 3	 0	 43.610204	 0;
	 2	 0	 0	 3	 0	 3.854488	 0;
	 2	 0	 0	 3	 0	 42.546697	 0;
	 2	 0	 0	 3	 0	 43.238472	 0;
	 2	 0	 0	 3	 0	 31.00887	 0;
	 2	 0	 0	 3	 0	 27.567391	 0;
	 2	 0	 0	 3	 0	 111.663196	 0;
	 2	 0	 0	 3	 0	 21.524971	 0;
	 2	 0	 0	 3	 0	 33.391097	 0;
	 2	 0	 0	 3	 0	 36.099068	 0;
	 2	 0	 0	 3	 0	 41.373095	 0;
	 2	 0	 0	 3	 0	 112.931469	 0;
	 2	 0	 0	 3	 0	 37.113909	 0;
	 2	 0	 0	 3	 0	 120.88597	 0;
	 2	 0	 0	 3	 0	 49.878504	 0;
	 2	 0	 0	 3	 0	 111.199869	 0;
	 2	 0	 0	 3	 0	 18.144957	 0;
	 2	 0	 0	 3	 0	 118.558869	 0;
	 2	 0	 0	 3	 0	 26.895688	 0;
	 2	 0	 0	 3	 0	 15.043928	 0;
	 2	 0	 0	 3	 0	 41.229971	 0;
	 2	 0	 0	 3	 0	 20.265517	 0;
];


% -------------------- mpc_regionR2 --------------------

mpc_regionR2.version = '2';
mpc_regionR2.baseMVA = 100.0000;
mpc_regionR2.bus = [
%	bus_i       type        Pd          Qd          Gs          Bs          area        Vm          Va          baseKV      zone        Vmax        Vmin        
	 1	 1	 0	 0	 0	 0	 2	 1	 0	 500	 2	 1.1	 0.9;
	 2	 2	 0	 0	 0	 0	 2	 1	 0	 500	 2	 1.1	 0.9;
	 3	 2	 0	 0	 0	 0	 2	 1	 0	 500	 2	 1.1	 0.9;
	 4	 2	 0	 0	 0	 0	 2	 1	 0	 500	 2	 1.1	 0.9;
	 5	 1	 122.12	-142.76	 0	 0	 2	 1	 0	 500	 2	 1.1	 0.9;
	 6	 1	 0	 0	 0	 0	 2	 1	 0	 500	 2	 1.1	 0.9;
	 7	 2	 0	 0	 0	 0	 2	 1	 0	 500	 2	 1.1	 0.9;
	 8	 2	 0	 0	 0	 0	 2	 1	 0	 500	 2	 1.1	 0.9;
	 9	 2	 0	 0	 0	 0	 2	 1	 0	 500	 2	 1.1	 0.9;
	 10	 2	 0	 0	 0	 0	 2	 1	 0	 500	 2	 1.1	 0.9;
	 11	 1	 5.48	 3.37	 0	 0	 2	 1	 0	 500	 2	 1.1	 0.9;
	 12	 2	 0	 0	 0	 0	 2	 1	 0	 500	 2	 1.1	 0.9;
	 13	 2	 0	 0	 0	 0	 2	 1	 0	 500	 2	 1.1	 0.9;
	 14	 1	 0	 0	 0	 0	 2	 1	 0	 500	 2	 1.1	 0.9;
	 15	 2	 0	 0	 0	 0	 2	 1	 0	 500	 2	 1.1	 0.9;
	 16	 2	 0	 0	 0	 0	 2	 1	 0	 500	 2	 1.1	 0.9;
	 17	 2	 0	 0	 0	 0	 2	 1	 0	 500	 2	 1.1	 0.9;
	 18	 2	 0	 0	 0	 0	 2	 1	 0	 500	 2	 1.1	 0.9;
	 19	 1	 0	 0	 0	 0	 2	 1	 0	 500	 2	 1.1	 0.9;
	 20	 2	 0	 0	 0	 0	 2	 1	 0	 500	 2	 1.1	 0.9;
	 21	 2	 0	 0	 0	 0	 2	 1	 0	 500	 2	 1.1	 0.9;
	 22	 2	 0	 0	 0	 0	 2	 1	 0	 500	 2	 1.1	 0.9;
	 23	 1	 0	 0	 0	 0	 2	 1	 0	 500	 2	 1.1	 0.9;
	 24	 2	 0	 0	 0	 0	 2	 1	 0	 500	 2	 1.1	 0.9;
	 25	 2	 0	 0	 0	 0	 2	 1	 0	 500	 2	 1.1	 0.9;
	 26	 2	 0	 0	 0	 0	 2	 1	 0	 500	 2	 1.1	 0.9;
	 27	 1	 0	 0	 0	 0	 2	 1	 0	 500	 2	 1.1	 0.9;
	 28	 1	 32.23	 39	 0	 0	 2	 1	 0	 500	 2	 1.1	 0.9;
	 29	 2	 0	 0	 0	 0	 2	 1	 0	 500	 2	 1.1	 0.9;
	 30	 2	 0	 0	 0	 0	 2	 1	 0	 500	 2	 1.1	 0.9;
	 31	 1	 0	 0	 0	 0	 2	 1	 0	 500	 2	 1.1	 0.9;
	 32	 1	 0	 0	 0	 0	 2	 1	 0	 500	 2	 1.1	 0.9;
	 33	 1	 0	 0	 0	 0	 2	 1	 0	 500	 2	 1.1	 0.9;
	 34	 1	 0	 0	 0	 12	 2	 1	 0	 500	 2	 1.1	 0.9;
	 35	 2	 0	 0	 0	 0	 2	 1	 0	 500	 2	 1.1	 0.9;
	 36	 2	 0	 0	 0	 20.34	 2	 1	 0	 500	 2	 1.1	 0.9;
	 37	 2	 0	 0	 0	 0	 2	 1	 0	 500	 2	 1.1	 0.9;
	 38	 2	 0	 0	 0	 0	 2	 1	 0	 500	 2	 1.1	 0.9;
	 39	 1	 1094.16	-110.77	 0	 2.62	 2	 1	 0	 500	 2	 1.1	 0.9;
	 40	 1	 0	 0	 0	 0	 2	 1	 0	 500	 2	 1.1	 0.9;
	 41	 1	 0	 0	 0	 0	 2	 1	 0	 500	 2	 1.1	 0.9;
	 42	 1	 0	 0	 0	 0	 2	 1	 0	 500	 2	 1.1	 0.9;
	 43	 2	 0	 0	 0	 0	 2	 1	 0	 500	 2	 1.1	 0.9;
	 44	 1	 12.66	 0	 0	-111.27	 2	 1	 0	 500	 2	 1.1	 0.9;
	 45	 1	 476.02	-4.36	 0	 0	 2	 1	 0	 500	 2	 1.1	 0.9;
	 46	 1	 725.74	-39.99	 0	 0	 2	 1	 0	 500	 2	 1.1	 0.9;
	 47	 1	 0	 0	 0	 0	 2	 1	 0	 500	 2	 1.1	 0.9;
	 48	 1	 0	 0	 0	-62.9	 2	 1	 0	 500	 2	 1.1	 0.9;
	 49	 1	 471.28	-155.26	 0	 0	 2	 1	 0	 500	 2	 1.1	 0.9;
	 50	 1	 0	 0	 0	 0	 2	 1	 0	 500	 2	 1.1	 0.9;
	 51	 1	 0	 0	 0	 0	 2	 1	 0	 500	 2	 1.1	 0.9;
	 52	 2	 0	 0	 0	 170.09	 2	 1	 0	 500	 2	 1.1	 0.9;
	 53	 1	 0	 0	 0	 0	 2	 1	 0	 500	 2	 1.1	 0.9;
	 54	 1	 0	 0	 0	 0	 2	 1	 0	 500	 2	 1.1	 0.9;
	 55	 1	 404.02	 62.74	 0	 28.59	 2	 1	 0	 345	 2	 1.1	 0.9;
	 56	 1	 0	 0	 0	-0.98	 2	 1	 0	 345	 2	 1.1	 0.9;
	 57	 1	 0	 0	 0	 0	 2	 1	 0	 345	 2	 1.1	 0.9;
	 58	 1	 0	 0	 0	-0.34	 2	 1	 0	 345	 2	 1.1	 0.9;
	 59	 2	 566.01	 123.64	 0	-0.23	 2	 1	 0	 138	 2	 1.1	 0.9;
	 60	 2	 614.78	 158.05	 0	 104.88	 2	 1	 0	 138	 2	 1.1	 0.9;
	 61	 2	 575.25	 147.39	 0	 99.73	 2	 1	 0	 138	 2	 1.1	 0.9;
	 62	 1	 1022.49	 74.95	 0	 214.84	 2	 1	 0	 138	 2	 1.1	 0.9;
	 63	 1	 278.89	 90.32	 0	 28.75	 2	 1	 0	 138	 2	 1.1	 0.9;
	 64	 1	 248.58	 104.43	 0	 28.59	 2	 1	 0	 138	 2	 1.1	 0.9;
	 65	 1	 152.75	 40.73	 0	 14.21	 2	 1	 0	 138	 2	 1.1	 0.9;
	 66	 1	 152.75	 40.73	 0	 14.21	 2	 1	 0	 138	 2	 1.1	 0.9;
	 67	 1	 159.76	 67.13	 0	 26.74	 2	 1	 0	 138	 2	 1.1	 0.9;
	 68	 1	 159.76	 67.15	 0	 27.33	 2	 1	 0	 138	 2	 1.1	 0.9;
	 69	 1	 208.39	 87.5	 0	 34.18	 2	 1	 0	 138	 2	 1.1	 0.9;
	 70	 1	 179.16	 76.47	 0	 54.85	 2	 1	 0	 138	 2	 1.1	 0.9;
	 71	 1	 377.21	 101.63	 0	 65.2	 2	 1	 0	 138	 2	 1.1	 0.9;
	 72	 1	 377.21	 101.65	 0	 64.85	 2	 1	 0	 138	 2	 1.1	 0.9;
	 73	 1	 356.56	 75.56	 0	-0.26	 2	 1	 0	 138	 2	 1.1	 0.9;
	 74	 1	 305.5	 81.17	 0	 34.17	 2	 1	 0	 138	 2	 1.1	 0.9;
	 75	 1	 19.19	 13.49	 0	-0.26	 2	 1	 0	 138	 2	 1.1	 0.9;
	 76	 1	 19.19	 13.49	 0	-0.56	 2	 1	 0	 138	 2	 1.1	 0.9;
	 77	 2	 0	 0	 0	 0	 2	 1	 0	 500	 2	 1.1	 0.9;
	 78	 2	 0	 0	 0	 0	 2	 1	 0	 500	 2	 1.1	 0.9;
	 79	 1	 356.56	 76.1	 0	 4.85	 2	 1	 0	 138	 2	 1.1	 0.9;
	 80	 1	 0	 0	 0	-0.79	 2	 1	 0	 138	 2	 1.1	 0.9;
	 81	 1	 356.56	 76.1	 0	 34.39	 2	 1	 0	 138	 2	 1.1	 0.9;
	 82	 1	 270.78	 66.27	 0	 5.34	 2	 1	 0	 138	 2	 1.1	 0.9;
	 83	 1	 179.16	 76.47	 0	 45.15	 2	 1	 0	 138	 2	 1.1	 0.9;
	 84	 1	 0	 0	 0	 0.75	 2	 1	 0	 138	 2	 1.1	 0.9;
	 85	 1	 0	 0	 0	 1.01	 2	 1	 0	 138	 2	 1.1	 0.9;
	 86	 1	 894.81	 134.23	 0	 184.29	 2	 1	 0	 138	 2	 1.1	 0.9;
	 87	 1	 0	 0	 0	 0.1	 2	 1	 0	 138	 2	 1.1	 0.9;
	 88	 1	 0	 0	 0	 0	 2	 1	 0	 138	 2	 1.1	 0.9;
	 89	 2	 0	 0	 0	 0	 2	 1	 0	 138	 2	 1.1	 0.9;
	 90	 2	 0	 0	 0	 0	 2	 1	 0	 138	 2	 1.1	 0.9;
	 91	 2	 0	 0	 0	 0	 2	 1	 0	 138	 2	 1.1	 0.9;
	 92	 1	 0	 0	 0	 0	 2	 1	 0	 138	 2	 1.1	 0.9;
	 93	 2	 0	 0	 0	 0	 2	 1	 0	 138	 2	 1.1	 0.9;
	 94	 1	 0	 0	 0	 2.12	 2	 1	 0	 138	 2	 1.1	 0.9;
	 95	 1	 0	 0	 0	 0	 2	 1	 0	 138	 2	 1.1	 0.9;
	 96	 1	 0	 0	 0	 0	 2	 1	 0	 138	 2	 1.1	 0.9;
	 97	 1	 0	 0	 0	 0	 2	 1	 0	 138	 2	 1.1	 0.9;
	 98	 1	 0	 0	 0	 0	 2	 1	 0	 138	 2	 1.1	 0.9;
	 99	 1	 0	 0	 0	 0	 2	 1	 0	 138	 2	 1.1	 0.9;
	 100	 1	 0	 0	 0	 0	 2	 1	 0	 138	 2	 1.1	 0.9;
	 101	 1	 0	 0	 0	 0	 2	 1	 0	 138	 2	 1.1	 0.9;
	 102	 1	 0	 0	 0	 0	 2	 1	 0	 138	 2	 1.1	 0.9;
	 103	 1	 0	 0	 0	 0	 2	 1	 0	 138	 2	 1.1	 0.9;
	 104	 1	 0	 0	 0	 0	 2	 1	 0	 33	 2	 1.1	 0.9;
	 105	 1	 0	 0	 0	 0	 2	 1	 0	 138	 2	 1.1	 0.9;
	 106	 1	 0	 0	 0	 0	 2	 1	 0	 138	 2	 1.1	 0.9;
	 107	 1	 0	 0	 0	 0	 2	 1	 0	 138	 2	 1.1	 0.9;
	 108	 1	 0	 0	 0	 0	 2	 1	 0	 138	 2	 1.1	 0.9;
	 109	 1	 0	 0	 0	 0	 2	 1	 0	 138	 2	 1.1	 0.9;
	 110	 1	 0	 0	 0	-0.11	 2	 1	 0	 138	 2	 1.1	 0.9;
	 111	 1	 0	 0	 0	 0	 2	 1	 0	 138	 2	 1.1	 0.9;
	 112	 1	 0	 0	 0	-0.11	 2	 1	 0	 138	 2	 1.1	 0.9;
	 113	 1	 0	 0	 0	-0.6	 2	 1	 0	 138	 2	 1.1	 0.9;
	 114	 1	 0	 0	 0	 0	 2	 1	 0	 138	 2	 1.1	 0.9;
	 115	 1	 0	 0	 0	-0.14	 2	 1	 0	 138	 2	 1.1	 0.9;
	 116	 1	 0	 0	 0	 0	 2	 1	 0	 138	 2	 1.1	 0.9;
	 117	 1	 0	 0	 0	 0	 2	 1	 0	 138	 2	 1.1	 0.9;
	 118	 1	 0	 0	 0	-0.3	 2	 1	 0	 138	 2	 1.1	 0.9;
	 119	 1	 0	 0	 0	-0.12	 2	 1	 0	 138	 2	 1.1	 0.9;
	 120	 1	 0	 0	 0	-0.3	 2	 1	 0	 138	 2	 1.1	 0.9;
	 121	 1	 0	 0	 0	-0.13	 2	 1	 0	 138	 2	 1.1	 0.9;
	 122	 1	 0	 0	 0	 0	 2	 1	 0	 138	 2	 1.1	 0.9;
	 123	 1	 0	 0	 0	 0	 2	 1	 0	 138	 2	 1.1	 0.9;
	 124	 1	 0	 0	 0	 0	 2	 1	 0	 138	 2	 1.1	 0.9;
	 125	 1	 0	 0	 0	 1.03	 2	 1	 0	 33	 2	 1.1	 0.9;
	 126	 1	 0	 0	 0	 0	 2	 1	 0	 11	 2	 1.1	 0.9;
	 127	 1	 0	 0	 0	 0	 2	 1	 0	 11	 2	 1.1	 0.9;
	 128	 1	 0	 0	 0	 3.14	 2	 1	 0	 33	 2	 1.1	 0.9;
	 129	 1	 0	 0	 0	 0	 2	 1	 0	 33	 2	 1.1	 0.9;
	 130	 1	 0	 0	 0	 1.13	 2	 1	 0	 33	 2	 1.1	 0.9;
	 131	 1	 0	 0	 0	 2.26	 2	 1	 0	 33	 2	 1.1	 0.9;
	 132	 1	 0	 0	 0	 1.06	 2	 1	 0	 33	 2	 1.1	 0.9;
	 133	 1	 0	 0	 0	 0	 2	 1	 0	 33	 2	 1.1	 0.9;
	 134	 1	 0	 0	 0	 0	 2	 1	 0	 33	 2	 1.1	 0.9;
	 135	 1	 0	 0	 0	 0	 2	 1	 0	 11	 2	 1.1	 0.9;
	 136	 1	 0	 0	 0	 0	 2	 1	 0	 11	 2	 1.1	 0.9;
	 137	 1	 0	 0	 0	 0	 2	 1	 0	 138	 2	 1.1	 0.9;
	 138	 2	 0	 0	 0	 0	 2	 1	 0	 138	 2	 1.1	 0.9;
	 139	 1	 0	 0	 0	 0	 2	 1	 0	 138	 2	 1.1	 0.9;
	 140	 1	 0	 0	 0	 0	 2	 1	 0	 138	 2	 1.1	 0.9;
	 141	 1	 0	 0	 0	-0.32	 2	 1	 0	 138	 2	 1.1	 0.9;
	 142	 1	 0	 0	 0	-103.67	 10	 1	 0	 500	 10	 1.1	 0.9;
	 143	 1	 181.6	 30.2	 0	-0.62	 10	 1	 0	 138	 10	 1.1	 0.9;
	 144	 1	 181.6	 30.2	 0	-0.32	 10	 1	 0	 138	 10	 1.1	 0.9;
	 145	 1	 0	 0	 0	 1.2	 10	 1	 0	 138	 10	 1.1	 0.9;
	 146	 1	 13.35	 2.9	 0	 0	 12	 1	 0	 138	 12	 1.1	 0.9;
	 147	 1	 0	 0	 0	 11.77	 12	 1	 0	 138	 12	 1.1	 0.9;
	 148	 1	 14.08	 3.82	 0	-2.65	 12	 1	 0	 138	 12	 1.1	 0.9;
	 149	 1	 10.77	 2.91	 0	 0	 12	 1	 0	 138	 12	 1.1	 0.9;
	 150	 1	 3.67	 0.5	 0	 0	 12	 1	 0	 138	 12	 1.1	 0.9;
	 151	 1	 8.2	 2.61	 0	 0	 12	 1	 0	 138	 12	 1.1	 0.9;
	 152	 1	 1.05	-53.7	 0	-0.33	 15	 1	 0	 500	 15	 1.1	 0.9;
	 153	 2	 0	 0	 0	 0	 15	 1	 0	 500	 15	 1.1	 0.9;
	 154	 2	 0	 0	 0	 0	 15	 1	 0	 500	 15	 1.1	 0.9;
	 155	 2	 0	 0	 0	 0	 15	 1	 0	 500	 15	 1.1	 0.9;
	 156	 1	 0	 0	 0	 0.02	 15	 1	 0	 500	 15	 1.1	 0.9;
	 157	 2	 0	 0	 0	 0	 15	 1	 0	 500	 15	 1.1	 0.9;
	 158	 2	 0	 0	 0	 0	 15	 1	 0	 500	 15	 1.1	 0.9;
	 159	 2	 0	 0	 0	 0	 15	 1	 0	 500	 15	 1.1	 0.9;
	 160	 1	 126.34	 31.97	 0	 0	 15	 1	 0	 345	 15	 1.1	 0.9;
	 161	 2	 0	 0	 0	 0	 15	 1	 0	 345	 15	 1.1	 0.9;
	 162	 2	 0	 0	 0	 0	 15	 1	 0	 345	 15	 1.1	 0.9;
	 163	 1	 0	 0	 0	-0.53	 15	 1	 0	 345	 15	 1.1	 0.9;
	 164	 2	 0	 0	 0	 0	 15	 1	 0	 345	 15	 1.1	 0.9;
	 165	 2	 0	 0	 0	 0	 15	 1	 0	 345	 15	 1.1	 0.9;
	 166	 2	 0	 0	 0	 0	 15	 1	 0	 345	 15	 1.1	 0.9;
	 167	 2	 0	 0	 0	 0	 15	 1	 0	 345	 15	 1.1	 0.9;
	 168	 1	 0	 0	 0	-0.8	 15	 1	 0	 345	 15	 1.1	 0.9;
	 169	 2	 0	 0	 0	 0	 15	 1	 0	 345	 15	 1.1	 0.9;
	 170	 2	 0	 0	 0	 0	 15	 1	 0	 345	 15	 1.1	 0.9;
	 171	 2	 0	 0	 0	 0	 15	 1	 0	 345	 15	 1.1	 0.9;
	 172	 2	 0	 0	 0	 0	 15	 1	 0	 345	 15	 1.1	 0.9;
	 173	 2	 0	 0	 0	 0	 15	 1	 0	 345	 15	 1.1	 0.9;
	 174	 2	 0	 0	 0	 0	 15	 1	 0	 345	 15	 1.1	 0.9;
	 175	 2	 0	 0	 0	 0	 15	 1	 0	 345	 15	 1.1	 0.9;
	 176	 2	 114.58	 27.45	 0	 0	 15	 1	 0	 345	 15	 1.1	 0.9;
	 177	 1	 1088	 70.78	 0	 0	 15	 1	 0	 500	 15	 1.1	 0.9;
	 178	 1	 0	 0	 0	 0	 15	 1	 0	 500	 15	 1.1	 0.9;
	 179	 1	 0	 0	 0	 0	 15	 1	 0	 500	 15	 1.1	 0.9;
	 180	 1	 0	 0	 0	 0	 15	 1	 0	 500	 15	 1.1	 0.9;
	 181	 1	 0	 0	 0	 0	 15	 1	 0	 500	 15	 1.1	 0.9;
	 182	 1	 0	 0	 0	 0	 15	 1	 0	 500	 15	 1.1	 0.9;
	 183	 1	 0	 0	 0	 0	 15	 1	 0	 500	 15	 1.1	 0.9;
	 184	 1	 0	 0	 0	 51.74	 15	 1	 0	 500	 15	 1.1	 0.9;
	 185	 1	 0	 0	 0	 0	 15	 1	 0	 500	 15	 1.1	 0.9;
	 186	 1	 0	 0	 0	 0	 15	 1	 0	 500	 15	 1.1	 0.9;
	 187	 2	 0	 0	 0	-48.98	 15	 1	 0	 500	 15	 1.1	 0.9;
	 188	 2	 0	 0	 0	-66.86	 15	 1	 0	 500	 15	 1.1	 0.9;
	 189	 1	 37.83	 15.18	 0	-0.54	 15	 1	 0	 345	 15	 1.1	 0.9;
	 190	 1	 0	 0	 0	-2.04	 15	 1	 0	 345	 15	 1.1	 0.9;
	 191	 1	 0	 0	 0	-2.69	 15	 1	 0	 345	 15	 1.1	 0.9;
	 192	 1	 0	 0	 0	-3.72	 15	 1	 0	 345	 15	 1.1	 0.9;
	 193	 1	 0	 0	 0	-1.18	 15	 1	 0	 345	 15	 1.1	 0.9;
	 194	 2	 0	 0	 0	 80.33	 15	 1	 0	 345	 15	 1.1	 0.9;
	 195	 1	 0	 0	 0	 0	 15	 1	 0	 345	 15	 1.1	 0.9;
	 196	 2	 0	 0	 0	 0	 15	 1	 0	 345	 15	 1.1	 0.9;
	 197	 1	 0	 0	 0	-0.82	 15	 1	 0	 345	 15	 1.1	 0.9;
	 198	 1	 0	 0	 0	-0.83	 15	 1	 0	 345	 15	 1.1	 0.9;
	 199	 1	 0	 0	 0	 0	 15	 1	 0	 345	 15	 1.1	 0.9;
	 200	 1	 0	 0	 0	-0.57	 15	 1	 0	 345	 15	 1.1	 0.9;
...
];

mpc_regionR2.gen = [
%	bus         Pg          Qg          Qmax        Qmin        Vg          mBase       status      Pmax        Pmin        Pc1         Pc2         Qc1min      Qc1max      Qc2min      Qc2max      ramp_agc    ramp_10     ramp_30     ramp_q      apf         
	 2	 121	 0	 330.75	-330.75	 1	 100	 1	 242	 0	 0	 0	 0	 0	 0	 0	 0	 0	 0	 0	 367.5;
	 3	 587.085	 0	 518	-518	 1	 100	 1	 1036	 138.17	 0	 0	 0	 0	 0	 0	 0	 0	 0	 0	 1108.425;
	 4	 127.5	 0	 194.4	-194.4	 1	 100	 1	 255	 0	 0	 0	 0	 0	 0	 0	 0	 0	 0	 0	 270;
	 7	 105.5	 0	 205.2	-205.2	 1	 100	 1	 211	 0	 0	 0	 0	 0	 0	 0	 0	 0	 0	 0	 285;
	 8	 199.5	 0	 205.2	-205.2	 1	 100	 1	 399	 0	 0	 0	 0	 0	 0	 0	 0	 0	 0	 0	 285;
	 9	 278	 0	 278	-278	 1	 100	 1	 556	 0	 0	 0	 0	 0	 0	 0	 0	 0	 0	 0	 285;
	 10	 152	 0	 349.65	-349.65	 1	 100	 1	 304	 0	 0	 0	 0	 0	 0	 0	 0	 0	 0	 0	 388.5;
	 12	 251	 0	 389.11	-389.11	 1	 100	 1	 502	 0	 0	 0	 0	 0	 0	 0	 0	 0	 0	 0	 432.348;
	 13	 204	 0	 389.11	-389.11	 1	 100	 1	 408	 0	 0	 0	 0	 0	 0	 0	 0	 0	 0	 0	 432.347;
	 15	 206	 0	 364.53	-364.53	 1	 100	 1	 412	 0	 0	 0	 0	 0	 0	 0	 0	 0	 0	 0	 405.03;
	 16	 178	 0	 364.49	-364.49	 1	 100	 1	 356	 0	 0	 0	 0	 0	 0	 0	 0	 0	 0	 0	 404.985;
	 17	 125.5	 0	 364.55	-364.55	 1	 100	 1	 251	 0	 0	 0	 0	 0	 0	 0	 0	 0	 0	 0	 405.051;
	 18	 121.5	 0	 364.53	-364.53	 1	 100	 1	 243	 0	 0	 0	 0	 0	 0	 0	 0	 0	 0	 0	 405.028;
	 20	 336	 0	 360.05	-360.05	 1	 100	 1	 672	 0	 0	 0	 0	 0	 0	 0	 0	 0	 0	 0	 400.05;
	 21	 200.5	 0	 360.05	-360.05	 1	 100	 1	 401	 0	 0	 0	 0	 0	 0	 0	 0	 0	 0	 0	 400.05;
	 22	 157.5	 0	 359.91	-359.91	 1	 100	 1	 315	 0	 0	 0	 0	 0	 0	 0	 0	 0	 0	 0	 399.9;
	 24	 265.5	 0	 346.95	-346.95	 1	 100	 1	 531	 0	 0	 0	 0	 0	 0	 0	 0	 0	 0	 0	 385.5;
	 25	 137.5	 0	 346.95	-346.95	 1	 100	 1	 275	 0	 0	 0	 0	 0	 0	 0	 0	 0	 0	 0	 385.5;
	 26	 131.5	 0	 367.96	-367.96	 1	 100	 1	 263	 0	 0	 0	 0	 0	 0	 0	 0	 0	 0	 0	 408.848;
	 29	 455.6	 0	 316	-316	 1	 100	 1	 632	 279.2	 0	 0	 0	 0	 0	 0	 0	 0	 0	 0	 776.819;
	 30	 683.315	 0	 538	-538	 1	 100	 1	 1076	 290.63	 0	 0	 0	 0	 0	 0	 0	 0	 0	 0	 871.884;
	 35	 323.8425	 0	 273	-273	 1	 100	 1	 546	 101.685	 0	 0	 0	 0	 0	 0	 0	 0	 0	 0	 917.82;
	 36	 0	 0	 33.33	-33.33	 1	 100	 0	 51	 0	 0	 0	 0	 0	 0	 0	 0	 0	 0	 0	 285;
	 36	 0	 0	 40	-40	 1	 100	 0	 79	 0	 0	 0	 0	 0	 0	 0	 0	 0	 0	 0	 263;
	 37	 0	 0	 33.33	-33.33	 1	 100	 0	 62	 0	 0	 0	 0	 0	 0	 0	 0	 0	 0	 0	 256;
	 37	 0	 0	 418	-418	 1	 100	 0	 836	 0	 0	 0	 0	 0	 0	 0	 0	 0	 0	 0	 292;
	 38	 1286.4525	 0	 945	-945	 1	 100	 1	 1890	 682.905	 0	 0	 0	 0	 0	 0	 0	 0	 0	 0	 1966.771;
	 43	 0	 0	 89	-89	 1	 100	 0	 177	 0	 0	 0	 0	 0	 0	 0	 0	 0	 0	 0	 269;
	 43	 0	 0	 33.33	-33.33	 1	 100	 0	 19	 0	 0	 0	 0	 0	 0	 0	 0	 0	 0	 0	 269;
	 52	 0	 0	 39	-39	 1	 100	 0	 77	 40.46	 0	 0	 0	 0	 0	 0	 0	 0	 0	 0	 95.919;
	 59	 433.59	 0	 350	-350	 1	 100	 1	 699	 168.18	 0	 0	 0	 0	 0	 0	 0	 0	 0	 0	 451.68;
	 60	 899.12	 0	 839	-839	 1	 100	 1	 1677	 121.24	 0	 0	 0	 0	 0	 0	 0	 0	 0	 0	 363.72;
	 61	 509.1425	 0	 457	-457	 1	 100	 1	 913	 105.285	 0	 0	 0	 0	 0	 0	 0	 0	 0	 0	 287.547;
	 77	 0	 0	 33.33	-33.33	 1	 100	 0	 35	 0	 0	 0	 0	 0	 0	 0	 0	 0	 0	 0	 256;
	 78	 0	 0	 341	-341	 1	 100	 0	 681	 0	 0	 0	 0	 0	 0	 0	 0	 0	 0	 0	 251;
	 89	 99.5	 0	 182.25	-182.25	 1	 100	 1	 199	 0	 0	 0	 0	 0	 0	 0	 0	 0	 0	 0	 253.125;
	 90	 236	 0	 236	-236	 1	 100	 1	 472	 0	 0	 0	 0	 0	 0	 0	 0	 0	 0	 0	 253.125;
	 91	 111	 0	 182.25	-182.25	 1	 100	 1	 222	 0	 0	 0	 0	 0	 0	 0	 0	 0	 0	 0	 253.125;
	 93	 341.5	 0	 370.95	-370.95	 1	 100	 1	 683	 0	 0	 0	 0	 0	 0	 0	 0	 0	 0	 0	 412.164;
	 138	 229	 0	 377.23	-377.23	 1	 100	 1	 458	 0	 0	 0	 0	 0	 0	 0	 0	 0	 0	 0	 419.147;
	 153	 171.5	 0	 363.1	-363.1	 1	 100	 1	 343	 0	 0	 0	 0	 0	 0	 0	 0	 0	 0	 0	 403.446;
	 154	 200	 0	 363.1	-363.1	 1	 100	 1	 400	 0	 0	 0	 0	 0	 0	 0	 0	 0	 0	 0	 403.446;
	 155	 193.5	 0	 363.1	-363.1	 1	 100	 1	 387	 0	 0	 0	 0	 0	 0	 0	 0	 0	 0	 0	 403.446;
	 157	 251.5	 0	 363.58	-363.58	 1	 100	 1	 503	 0	 0	 0	 0	 0	 0	 0	 0	 0	 0	 0	 403.976;
	 158	 196	 0	 363.58	-363.58	 1	 100	 1	 392	 0	 0	 0	 0	 0	 0	 0	 0	 0	 0	 0	 403.976;
	 159	 224	 0	 363.62	-363.62	 1	 100	 1	 448	 0	 0	 0	 0	 0	 0	 0	 0	 0	 0	 0	 404.019;
	 161	 199.5	 0	 361.9	-361.9	 1	 100	 1	 399	 0	 0	 0	 0	 0	 0	 0	 0	 0	 0	 0	 402.115;
	 162	 209.5	 0	 361.94	-361.94	 1	 100	 1	 419	 0	 0	 0	 0	 0	 0	 0	 0	 0	 0	 0	 402.157;
	 164	 193	 0	 207.23	-207.23	 1	 100	 1	 386	 0	 0	 0	 0	 0	 0	 0	 0	 0	 0	 0	 287.812;
	 165	 129.5	 0	 207.23	-207.23	 1	 100	 1	 259	 0	 0	 0	 0	 0	 0	 0	 0	 0	 0	 0	 287.812;
	 166	 170	 0	 207.23	-207.23	 1	 100	 1	 340	 0	 0	 0	 0	 0	 0	 0	 0	 0	 0	 0	 287.812;
	 167	 246	 0	 246	-246	 1	 100	 1	 492	 0	 0	 0	 0	 0	 0	 0	 0	 0	 0	 0	 287.812;
	 169	 155.5	 0	 207.23	-207.23	 1	 100	 1	 311	 0	 0	 0	 0	 0	 0	 0	 0	 0	 0	 0	 287.812;
	 170	 219.5	 0	 220	-220	 1	 100	 1	 439	 0	 0	 0	 0	 0	 0	 0	 0	 0	 0	 0	 287.812;
	 171	 194	 0	 207.23	-207.23	 1	 100	 1	 388	 0	 0	 0	 0	 0	 0	 0	 0	 0	 0	 0	 287.812;
	 172	 110	 0	 207.23	-207.23	 1	 100	 1	 220	 0	 0	 0	 0	 0	 0	 0	 0	 0	 0	 0	 287.812;
	 173	 225	 0	 352.8	-352.8	 1	 100	 1	 450	 0	 0	 0	 0	 0	 0	 0	 0	 0	 0	 0	 391.994;
	 174	 265	 0	 352.86	-352.86	 1	 100	 1	 530	 0	 0	 0	 0	 0	 0	 0	 0	 0	 0	 0	 392.066;
	 175	 0	 0	 93	-93	 1	 100	 0	 185	 0	 0	 0	 0	 0	 0	 0	 0	 0	 0	 0	 256;
	 176	 351.8575	 0	 303	-303	 1	 100	 1	 606	 97.715	 0	 0	 0	 0	 0	 0	 0	 0	 0	 0	 866.304;
	 187	 0	 0	 33.33	-33.33	 1	 100	 0	 420.77	 30	 0	 0	 0	 0	 0	 0	 0	 0	 0	 0	 435.775;
	 188	 0	 0	 33.33	-33.33	 1	 100	 0	 401.09	 62	 0	 0	 0	 0	 0	 0	 0	 0	 0	 0	 416.091;
	 194	 0	 0	 124	-124	 1	 100	 0	 247	 34.525	 0	 0	 0	 0	 0	 0	 0	 0	 0	 0	 84.051;
	 196	 172.76	 0	 364.8	-364.8	 1	 100	 1	 338	 7.52	 0	 0	 0	 0	 0	 0	 0	 0	 0	 0	 100.001;
	 226	 927.76	 0	 905	-905	 1	 100	 1	 1809	 46.52	 0	 0	 0	 0	 0	 0	 0	 0	 0	 0	 1356.894;
	 227	 75.5	 0	 363.58	-363.58	 1	 100	 1	 151	 0	 0	 0	 0	 0	 0	 0	 0	 0	 0	 0	 403.976;
	 228	 78	 0	 363.58	-363.58	 1	 100	 1	 156	 0	 0	 0	 0	 0	 0	 0	 0	 0	 0	 0	 403.976;
	 229	 141.5	 0	 363.62	-363.62	 1	 100	 1	 283	 0	 0	 0	 0	 0	 0	 0	 0	 0	 0	 0	 404.019;
	 230	 0	 0	 707	-707	 1	 100	 0	 1413	 450.025	 0	 0	 0	 0	 0	 0	 0	 0	 0	 0	 915.05;
	 231	 219.5	 0	 363.1	-363.1	 1	 100	 1	 439	 0	 0	 0	 0	 0	 0	 0	 0	 0	 0	 0	 403.442;
	 232	 165.5	 0	 363.45	-363.45	 1	 100	 1	 331	 0	 0	 0	 0	 0	 0	 0	 0	 0	 0	 0	 403.829;
	 234	 188.5	 0	 377.88	-377.88	 1	 100	 1	 377	 0	 0	 0	 0	 0	 0	 0	 0	 0	 0	 0	 419.868;
	 235	 191	 0	 378.45	-378.45	 1	 100	 1	 382	 0	 0	 0	 0	 0	 0	 0	 0	 0	 0	 0	 420.501;
	 237	 356.5	 0	 379.13	-379.13	 1	 100	 1	 713	 0	 0	 0	 0	 0	 0	 0	 0	 0	 0	 0	 421.256;
	 238	 206.5	 0	 378.28	-378.28	 1	 100	 1	 413	 0	 0	 0	 0	 0	 0	 0	 0	 0	 0	 0	 420.314;
	 244	 764.6725	 0	 646	-646	 1	 100	 1	 1291	 238.345	 0	 0	 0	 0	 0	 0	 0	 0	 0	 0	 1199.8311;
	 245	 1221.48	 0	 1039	-1039	 1	 100	 1	 2077	 365.96	 0	 0	 0	 0	 0	 0	 0	 0	 0	 0	 1053.9611;
	 248	 0	 0	 80	-80	 1	 100	 0	 160	 0	 0	 0	 0	 0	 0	 0	 0	 0	 0	 0	 253;
	 252	 0	 0	 33.33	-33.33	 1	 100	 0	 7	 0	 0	 0	 0	 0	 0	 0	 0	 0	 0	 0	 295;
	 257	 0	 0	 41	-41	 1	 100	 0	 81	 49.08	 0	 0	 0	 0	 0	 0	 0	 0	 0	 0	 113.164;
	 258	 306	 0	 561.6	-561.6	 1	 100	 1	 612	 0	 0	 0	 0	 0	 0	 0	 0	 0	 0	 0	 623.996;
	 258	 0	 0	 33.33	-33.33	 1	 100	 0	 1046.52	 29	 0	 0	 0	 0	 0	 0	 0	 0	 0	 0	 1061.519;
	 263	 0	 0	 33.33	-33.33	 1	 100	 0	 24	 0	 0	 0	 0	 0	 0	 0	 0	 0	 0	 0	 277;
	 265	 0	 0	 36	-36	 1	 100	 0	 71	 0	 0	 0	 0	 0	 0	 0	 0	 0	 0	 0	 293;
	 271	 0	 0	 33.33	-33.33	 1	 100	 0	 0	 0	 0	 0	 0	 0	 0	 0	 0	 0	 0	 0	 270;
	 274	 0	 0	 139	-139	 1	 100	 0	 277	 0	 0	 0	 0	 0	 0	 0	 0	 0	 0	 0	 250;
	 276	 0	 0	 35	-35	 1	 100	 0	 70	 0	 0	 0	 0	 0	 0	 0	 0	 0	 0	 0	 296;
	 308	 0	 0	 33.33	-33.33	 1	 100	 0	 3	 0	 0	 0	 0	 0	 0	 0	 0	 0	 0	 0	 270;
	 310	 0	 0	 33.33	-33.33	 1	 100	 0	 23	 0	 0	 0	 0	 0	 0	 0	 0	 0	 0	 0	 290;
	 311	 0	 0	 169	-169	 1	 100	 0	 337	 0	 0	 0	 0	 0	 0	 0	 0	 0	 0	 0	 261;
	 318	 0	 0	 254	-254	 1	 100	 0	 508	 0	 0	 0	 0	 0	 0	 0	 0	 0	 0	 0	 268;
	 319	 0	 0	 33.33	-33.33	 1	 100	 0	 37	 0	 0	 0	 0	 0	 0	 0	 0	 0	 0	 0	 284;
	 320	 0	 0	 50	-50	 1	 100	 0	 99	 0	 0	 0	 0	 0	 0	 0	 0	 0	 0	 0	 255;
	 322	 72.5	 0	 73	-73	 1	 100	 1	 145	 0	 0	 0	 0	 0	 0	 0	 0	 0	 0	 0	 76.875;
	 323	 83.5	 0	 84	-84	 1	 100	 1	 167	 0	 0	 0	 0	 0	 0	 0	 0	 0	 0	 0	 76.875;
	 324	 62	 0	 62	-62	 1	 100	 1	 124	 0	 0	 0	 0	 0	 0	 0	 0	 0	 0	 0	 76.875;
	 325	 90.5	 0	 91	-91	 1	 100	 1	 181	 0	 0	 0	 0	 0	 0	 0	 0	 0	 0	 0	 76.875;
	 326	 52	 0	 86.4	-86.4	 1	 100	 1	 104	 0	 0	 0	 0	 0	 0	 0	 0	 0	 0	 0	 120;
];

mpc_regionR2.branch = [
%	fbus        tbus        r           x           b           rateA       rateB       rateC       ratio       angle       status      angmin      angmax      
	 1	 2	 0.00057	 0.05251	 0	 397.35	 476.82	 715.23	 1.01	 0	 1	-30	 30;
	 1	 27	 1e-05	 0.00014	 0.0717	 387.41	 464.89	 697.33	 0	 0	 1	-30	 30;
	 3	 4	 0.00167	 0.07167	 0	 297.02	 356.43	 534.64	 1.0091	 0	 1	-30	 30;
	 3	 27	 0.00039	 0.00689	 0.2687	 1756.03	 2107.24	 3160.85	 0	 0	 1	-30	 30;
	 3	 184	 0.0001	 0.01	 0	 659.24	 791.09	 988.86	 0	 0	 1	-30	 30;
	 5	 33	 0.00113	 0.0121	 0.4573	 1584.11	 1900.94	 2851.41	 0	 0	 1	-30	 30;
	 5	 258	 0.0001	 0.01	 0	 788.67	 946.4	 1183	 0	 0	 1	-30	 30;
	 6	 7	 0.00167	 0.071	 0	 318.79	 382.55	 573.82	 1.01	 0	 1	-30	 30;
	 6	 8	 0.00127	 0.0639	 0	 320.36	 384.43	 576.65	 1.01	 0	 1	-30	 30;
	 6	 9	 0.00167	 0.07139	 0	 318.74	 382.49	 573.74	 1.01	 0	 1	-30	 30;
	 6	 10	 0.00098	 0.04423	 0	 423.97	 508.77	 763.15	 1.01	 0	 1	-30	 30;
	 6	 43	 0.00025	 0.00388	 0.1586	 822.29	 986.75	 1233.43	 0	 0	 1	-30	 30;
	 6	 46	 6e-05	 0.00088	 0.0358	 1385.97	 1663.17	 2078.96	 0	 0	 1	-30	 30;
	 70	 6	 0.0017	 0.08773	 0	 203.38	 244.05	 366.08	 1.01	 0	 1	-30	 30;
	 83	 6	 0.00138	 0.07978	 0	 203.98	 244.77	 367.16	 1.01	 0	 1	-30	 30;
	 11	 12	 0.00022	 0.01963	 0	 462.76	 555.31	 832.97	 1.01	 0	 1	-30	 30;
	 11	 13	 0.00022	 0.01968	 0	 462.57	 555.08	 832.62	 1.01	 0	 1	-30	 30;
	 11	 43	 0.00119	 0.01854	 0.7567	 290.47	 348.56	 435.7	 0	 0	 1	-30	 30;
	 11	 51	 0.00046	 0.00708	 0.2889	 476.17	 571.41	 857.11	 0	 0	 1	-30	 30;
	 11	 51	 0.00046	 0.00708	 0.2889	 476.17	 571.41	 857.11	 0	 0	 1	-30	 30;
	 11	 53	 0.00177	 0.01948	 0.6682	 245.79	 294.95	 442.43	 0	 0	 1	-30	 30;
	 75	 11	 0.00104	 0.07958	 0	 24.31	 29.17	 36.46	 0.99	 0	 1	-30	 30;
	 75	 11	 0.00104	 0.07958	 0	 25.11	 30.13	 37.66	 0.99	 0	 1	-30	 30;
	 76	 11	 0.00104	 0.07958	 0	 25.34	 30.41	 38.02	 0.99	 0	 1	-30	 30;
	 76	 11	 0.00104	 0.07958	 0	 25.4	 30.48	 38.1	 0.99	 0	 1	-30	 30;
	 14	 15	 0.00073	 0.02693	 0	 416.22	 499.47	 749.2	 1.01	 0	 1	-30	 30;
	 14	 16	 0.00075	 0.02713	 0	 415.79	 498.95	 748.42	 1.01	 0	 1	-30	 30;
	 14	 17	 0.00072	 0.02725	 0	 415.83	 499	 748.5	 1.01	 0	 1	-30	 30;
	 14	 18	 0.00073	 0.02713	 0	 415.93	 499.12	 748.68	 1.01	 0	 1	-30	 30;
	 14	 23	 0.00076	 0.01428	 0.5885	 1041.64	 1249.97	 1562.47	 0	 0	 1	-30	 30;
	 14	 27	 0.0003	 0.00469	 0.1916	 3096.98	 3716.37	 4645.47	 0	 0	 1	-30	 30;
	 14	 31	 0.0003	 0.00469	 0.1915	 775.21	 930.25	 1162.82	 0	 0	 1	-30	 30;
	 14	 32	 0.00026	 0.00279	 0.1369	 2125.39	 2550.47	 3825.7	 0	 0	 1	-30	 30;
	 14	 34	 0.00231	 0.02517	 0.8403	 1178.04	 1413.65	 2120.48	 0	 0	 1	-30	 30;
	 14	 40	 0.00091	 0.01707	 0.7148	 894.6	 1073.52	 1610.28	 0	 0	 1	-30	 30;
	 82	 14	 0.00174	 0.08498	 0	 287.14	 344.57	 430.71	 1.01	 0	 1	-30	 30;
	 82	 14	 0.00176	 0.08498	 0	 287.46	 344.95	 431.19	 1.01	 0	 1	-30	 30;
	 19	 20	 0.00058	 0.04417	 0	 413.27	 495.92	 743.88	 1.01	 0	 1	-30	 30;
	 19	 21	 0.00058	 0.04417	 0	 413.27	 495.92	 743.88	 1.01	 0	 1	-30	 30;
	 19	 22	 0.00058	 0.04417	 0	 413.27	 495.92	 743.88	 1.01	 0	 1	-30	 30;
	 19	 40	 8e-05	 0.00074	 0.0226	 1201.19	 1441.43	 2162.15	 0	 0	 1	-30	 30;
...